MODEL 1
REMARK VINA RESULT:      -3.6      0.000      0.000
REMARK  5 active torsions:
REMARK  status: ('A' for Active; 'I' for Inactive)
REMARK    1  A    between atoms: N1_1  and  C3_5 
REMARK    2  A    between atoms: C3_5  and  C1_6 
REMARK    3  A    between atoms: C1_6  and  C2_7 
REMARK    4  A    between atoms: C2_7  and  C4_8 
REMARK    5  A    between atoms: C4_8  and  N2_9 
ROOT
ATOM      1  C1  PUT     1      -0.662  68.073  65.856  1.00  0.00     0.029 C 
ENDROOT
BRANCH   1   2
ATOM      2  C3  PUT     1      -1.616  67.622  66.963  1.00  0.00     0.229 C 
BRANCH   2   3
ATOM      3  N1  PUT     1      -3.046  67.973  66.627  1.00  0.00    -0.079 N 
ATOM      4  H9  PUT     1      -3.154  68.262  65.664  1.00  0.00     0.274 HD
ATOM      5  H10 PUT     1      -3.376  68.739  67.202  1.00  0.00     0.274 HD
ATOM      6  H11 PUT     1      -3.677  67.197  66.782  1.00  0.00     0.274 HD
ENDBRANCH   2   3
ENDBRANCH   1   2
BRANCH   1   7
ATOM      7  C2  PUT     1       0.801  67.987  66.325  1.00  0.00     0.029 C 
BRANCH   7   8
ATOM      8  C4  PUT     1       0.908  68.258  67.826  1.00  0.00     0.229 C 
BRANCH   8   9
ATOM      9  N2  PUT     1       1.688  67.167  68.523  1.00  0.00    -0.079 N 
ATOM     10  H12 PUT     1       2.647  67.143  68.198  1.00  0.00     0.274 HD
ATOM     11  H13 PUT     1       1.298  66.249  68.352  1.00  0.00     0.274 HD
ATOM     12  H14 PUT     1       1.720  67.300  69.525  1.00  0.00     0.274 HD
ENDBRANCH   8   9
ENDBRANCH   7   8
ENDBRANCH   1   7
TORSDOF 5
ENDMDL
MODEL 2
REMARK VINA RESULT:      -3.6      0.112      3.523
REMARK  5 active torsions:
REMARK  status: ('A' for Active; 'I' for Inactive)
REMARK    1  A    between atoms: N1_1  and  C3_5 
REMARK    2  A    between atoms: C3_5  and  C1_6 
REMARK    3  A    between atoms: C1_6  and  C2_7 
REMARK    4  A    between atoms: C2_7  and  C4_8 
REMARK    5  A    between atoms: C4_8  and  N2_9 
ROOT
ATOM      1  C1  PUT     1       0.718  67.957  66.329  1.00  0.00     0.029 C 
ENDROOT
BRANCH   1   2
ATOM      2  C3  PUT     1       0.968  68.324  67.792  1.00  0.00     0.229 C 
BRANCH   2   3
ATOM      3  N1  PUT     1       1.658  67.197  68.526  1.00  0.00    -0.079 N 
ATOM      4  H9  PUT     1       1.012  66.471  68.807  1.00  0.00     0.274 HD
ATOM      5  H10 PUT     1       2.105  67.535  69.369  1.00  0.00     0.274 HD
ATOM      6  H11 PUT     1       2.378  66.761  67.966  1.00  0.00     0.274 HD
ENDBRANCH   2   3
ENDBRANCH   1   2
BRANCH   1   7
ATOM      7  C2  PUT     1      -0.745  68.234  65.937  1.00  0.00     0.029 C 
BRANCH   7   8
ATOM      8  C4  PUT     1      -1.706  67.621  66.956  1.00  0.00     0.229 C 
BRANCH   8   9
ATOM      9  N2  PUT     1      -3.139  67.975  66.634  1.00  0.00    -0.079 N 
ATOM     10  H12 PUT     1      -3.308  68.964  66.772  1.00  0.00     0.274 HD
ATOM     11  H13 PUT     1      -3.797  67.481  67.223  1.00  0.00     0.274 HD
ATOM     12  H14 PUT     1      -3.379  67.767  65.674  1.00  0.00     0.274 HD
ENDBRANCH   8   9
ENDBRANCH   7   8
ENDBRANCH   1   7
TORSDOF 5
ENDMDL
MODEL 3
REMARK VINA RESULT:      -3.5      5.541      6.807
REMARK  5 active torsions:
REMARK  status: ('A' for Active; 'I' for Inactive)
REMARK    1  A    between atoms: N1_1  and  C3_5 
REMARK    2  A    between atoms: C3_5  and  C1_6 
REMARK    3  A    between atoms: C1_6  and  C2_7 
REMARK    4  A    between atoms: C2_7  and  C4_8 
REMARK    5  A    between atoms: C4_8  and  N2_9 
ROOT
ATOM      1  C1  PUT     1       6.217  68.729  63.927  1.00  0.00     0.029 C 
ENDROOT
BRANCH   1   2
ATOM      2  C3  PUT     1       5.306  68.503  62.720  1.00  0.00     0.229 C 
BRANCH   2   3
ATOM      3  N1  PUT     1       6.091  68.544  61.429  1.00  0.00    -0.079 N 
ATOM      4  H9  PUT     1       5.491  68.559  60.615  1.00  0.00     0.274 HD
ATOM      5  H10 PUT     1       6.685  67.728  61.340  1.00  0.00     0.274 HD
ATOM      6  H11 PUT     1       6.695  69.353  61.374  1.00  0.00     0.274 HD
ENDBRANCH   2   3
ENDBRANCH   1   2
BRANCH   1   7
ATOM      7  C2  PUT     1       5.437  68.559  65.242  1.00  0.00     0.029 C 
BRANCH   7   8
ATOM      8  C4  PUT     1       3.976  68.203  64.965  1.00  0.00     0.229 C 
BRANCH   8   9
ATOM      9  N2  PUT     1       3.167  68.186  66.241  1.00  0.00    -0.079 N 
ATOM     10  H12 PUT     1       2.263  68.621  66.104  1.00  0.00     0.274 HD
ATOM     11  H13 PUT     1       3.624  68.690  66.990  1.00  0.00     0.274 HD
ATOM     12  H14 PUT     1       2.994  67.246  66.573  1.00  0.00     0.274 HD
ENDBRANCH   8   9
ENDBRANCH   7   8
ENDBRANCH   1   7
TORSDOF 5
ENDMDL
MODEL 4
REMARK VINA RESULT:      -3.4      6.635      7.591
REMARK  5 active torsions:
REMARK  status: ('A' for Active; 'I' for Inactive)
REMARK    1  A    between atoms: N1_1  and  C3_5 
REMARK    2  A    between atoms: C3_5  and  C1_6 
REMARK    3  A    between atoms: C1_6  and  C2_7 
REMARK    4  A    between atoms: C2_7  and  C4_8 
REMARK    5  A    between atoms: C4_8  and  N2_9 
ROOT
ATOM      1  C1  PUT     1       4.939  68.465  64.945  1.00  0.00     0.029 C 
ENDROOT
BRANCH   1   2
ATOM      2  C3  PUT     1       6.461  68.323  64.995  1.00  0.00     0.229 C 
BRANCH   2   3
ATOM      3  N1  PUT     1       7.107  69.572  65.547  1.00  0.00    -0.079 N 
ATOM      4  H9  PUT     1       6.624  69.925  66.362  1.00  0.00     0.274 HD
ATOM      5  H10 PUT     1       7.104  70.316  64.859  1.00  0.00     0.274 HD
ATOM      6  H11 PUT     1       8.072  69.419  65.810  1.00  0.00     0.274 HD
ENDBRANCH   2   3
ENDBRANCH   1   2
BRANCH   1   7
ATOM      7  C2  PUT     1       4.409  68.187  63.527  1.00  0.00     0.029 C 
BRANCH   7   8
ATOM      8  C4  PUT     1       5.488  68.461  62.480  1.00  0.00     0.229 C 
BRANCH   8   9
ATOM      9  N2  PUT     1       5.178  67.756  61.180  1.00  0.00    -0.079 N 
ATOM     10  H12 PUT     1       5.322  68.373  60.389  1.00  0.00     0.274 HD
ATOM     11  H13 PUT     1       4.217  67.442  61.134  1.00  0.00     0.274 HD
ATOM     12  H14 PUT     1       5.767  66.947  61.033  1.00  0.00     0.274 HD
ENDBRANCH   8   9
ENDBRANCH   7   8
ENDBRANCH   1   7
TORSDOF 5
ENDMDL
MODEL 5
REMARK VINA RESULT:      -3.4      6.087      6.968
REMARK  5 active torsions:
REMARK  status: ('A' for Active; 'I' for Inactive)
REMARK    1  A    between atoms: N1_1  and  C3_5 
REMARK    2  A    between atoms: C3_5  and  C1_6 
REMARK    3  A    between atoms: C1_6  and  C2_7 
REMARK    4  A    between atoms: C2_7  and  C4_8 
REMARK    5  A    between atoms: C4_8  and  N2_9 
ROOT
ATOM      1  C1  PUT     1       2.659  63.042  69.760  1.00  0.00     0.029 C 
ENDROOT
BRANCH   1   2
ATOM      2  C3  PUT     1       2.986  64.487  69.384  1.00  0.00     0.229 C 
BRANCH   2   3
ATOM      3  N1  PUT     1       1.764  65.369  69.492  1.00  0.00    -0.079 N 
ATOM      4  H9  PUT     1       2.003  66.348  69.571  1.00  0.00     0.274 HD
ATOM      5  H10 PUT     1       1.217  65.133  70.311  1.00  0.00     0.274 HD
ATOM      6  H11 PUT     1       1.151  65.272  68.693  1.00  0.00     0.274 HD
ENDBRANCH   2   3
ENDBRANCH   1   2
BRANCH   1   7
ATOM      7  C2  PUT     1       2.841  62.107  68.551  1.00  0.00     0.029 C 
BRANCH   7   8
ATOM      8  C4  PUT     1       3.896  61.040  68.841  1.00  0.00     0.229 C 
BRANCH   8   9
ATOM      9  N2  PUT     1       3.284  59.659  68.865  1.00  0.00    -0.079 N 
ATOM     10  H12 PUT     1       2.276  59.708  68.776  1.00  0.00     0.274 HD
ATOM     11  H13 PUT     1       3.478  59.169  69.728  1.00  0.00     0.274 HD
ATOM     12  H14 PUT     1       3.618  59.079  68.107  1.00  0.00     0.274 HD
ENDBRANCH   8   9
ENDBRANCH   7   8
ENDBRANCH   1   7
TORSDOF 5
ENDMDL
MODEL 6
REMARK VINA RESULT:      -3.4      4.481      5.640
REMARK  5 active torsions:
REMARK  status: ('A' for Active; 'I' for Inactive)
REMARK    1  A    between atoms: N1_1  and  C3_5 
REMARK    2  A    between atoms: C3_5  and  C1_6 
REMARK    3  A    between atoms: C1_6  and  C2_7 
REMARK    4  A    between atoms: C2_7  and  C4_8 
REMARK    5  A    between atoms: C4_8  and  N2_9 
ROOT
ATOM      1  C1  PUT     1       4.252  68.250  65.480  1.00  0.00     0.029 C 
ENDROOT
BRANCH   1   2
ATOM      2  C3  PUT     1       3.562  66.923  65.795  1.00  0.00     0.229 C 
BRANCH   2   3
ATOM      3  N1  PUT     1       2.711  67.034  67.039  1.00  0.00    -0.079 N 
ATOM      4  H9  PUT     1       2.307  67.955  67.146  1.00  0.00     0.274 HD
ATOM      5  H10 PUT     1       3.259  66.855  67.871  1.00  0.00     0.274 HD
ATOM      6  H11 PUT     1       1.948  66.368  67.041  1.00  0.00     0.274 HD
ENDBRANCH   2   3
ENDBRANCH   1   2
BRANCH   1   7
ATOM      7  C2  PUT     1       4.666  68.314  63.999  1.00  0.00     0.029 C 
BRANCH   7   8
ATOM      8  C4  PUT     1       6.139  68.699  63.861  1.00  0.00     0.229 C 
BRANCH   8   9
ATOM      9  N2  PUT     1       6.759  68.973  65.212  1.00  0.00    -0.079 N 
ATOM     10  H12 PUT     1       7.770  68.978  65.152  1.00  0.00     0.274 HD
ATOM     11  H13 PUT     1       6.510  68.272  65.897  1.00  0.00     0.274 HD
ATOM     12  H14 PUT     1       6.482  69.871  65.585  1.00  0.00     0.274 HD
ENDBRANCH   8   9
ENDBRANCH   7   8
ENDBRANCH   1   7
TORSDOF 5
ENDMDL
MODEL 7
REMARK VINA RESULT:      -3.4      5.337      5.908
REMARK  5 active torsions:
REMARK  status: ('A' for Active; 'I' for Inactive)
REMARK    1  A    between atoms: N1_1  and  C3_5 
REMARK    2  A    between atoms: C3_5  and  C1_6 
REMARK    3  A    between atoms: C1_6  and  C2_7 
REMARK    4  A    between atoms: C2_7  and  C4_8 
REMARK    5  A    between atoms: C4_8  and  N2_9 
ROOT
ATOM      1  C1  PUT     1       2.651  63.009  69.922  1.00  0.00     0.029 C 
ENDROOT
BRANCH   1   2
ATOM      2  C3  PUT     1       1.389  63.861  70.059  1.00  0.00     0.229 C 
BRANCH   2   3
ATOM      3  N1  PUT     1       1.635  65.278  69.593  1.00  0.00    -0.079 N 
ATOM      4  H9  PUT     1       0.795  65.715  69.237  1.00  0.00     0.274 HD
ATOM      5  H10 PUT     1       2.318  65.300  68.846  1.00  0.00     0.274 HD
ATOM      6  H11 PUT     1       1.991  65.867  70.335  1.00  0.00     0.274 HD
ENDBRANCH   2   3
ENDBRANCH   1   2
BRANCH   1   7
ATOM      7  C2  PUT     1       3.685  63.702  69.017  1.00  0.00     0.029 C 
BRANCH   7   8
ATOM      8  C4  PUT     1       3.713  63.057  67.631  1.00  0.00     0.229 C 
BRANCH   8   9
ATOM      9  N2  PUT     1       3.495  64.087  66.547  1.00  0.00    -0.079 N 
ATOM     10  H12 PUT     1       3.156  64.958  66.936  1.00  0.00     0.274 HD
ATOM     11  H13 PUT     1       2.811  63.786  65.864  1.00  0.00     0.274 HD
ATOM     12  H14 PUT     1       4.347  64.301  66.045  1.00  0.00     0.274 HD
ENDBRANCH   8   9
ENDBRANCH   7   8
ENDBRANCH   1   7
TORSDOF 5
ENDMDL
MODEL 8
REMARK VINA RESULT:      -3.4      2.486      3.569
REMARK  5 active torsions:
REMARK  status: ('A' for Active; 'I' for Inactive)
REMARK    1  A    between atoms: N1_1  and  C3_5 
REMARK    2  A    between atoms: C3_5  and  C1_6 
REMARK    3  A    between atoms: C1_6  and  C2_7 
REMARK    4  A    between atoms: C2_7  and  C4_8 
REMARK    5  A    between atoms: C4_8  and  N2_9 
ROOT
ATOM      1  C1  PUT     1       0.300  67.697  65.116  1.00  0.00     0.029 C 
ENDROOT
BRANCH   1   2
ATOM      2  C3  PUT     1       0.581  67.996  63.643  1.00  0.00     0.229 C 
BRANCH   2   3
ATOM      3  N1  PUT     1      -0.531  68.817  63.032  1.00  0.00    -0.079 N 
ATOM      4  H9  PUT     1      -1.393  68.293  62.949  1.00  0.00     0.274 HD
ATOM      5  H10 PUT     1      -0.284  69.124  62.099  1.00  0.00     0.274 HD
ATOM      6  H11 PUT     1      -0.734  69.648  63.571  1.00  0.00     0.274 HD
ENDBRANCH   2   3
ENDBRANCH   1   2
BRANCH   1   7
ATOM      7  C2  PUT     1      -0.976  68.417  65.587  1.00  0.00     0.029 C 
BRANCH   7   8
ATOM      8  C4  PUT     1      -1.646  67.647  66.726  1.00  0.00     0.229 C 
BRANCH   8   9
ATOM      9  N2  PUT     1      -3.131  67.921  66.770  1.00  0.00    -0.079 N 
ATOM     10  H12 PUT     1      -3.315  68.879  67.041  1.00  0.00     0.274 HD
ATOM     11  H13 PUT     1      -3.610  67.331  67.438  1.00  0.00     0.274 HD
ATOM     12  H14 PUT     1      -3.573  67.780  65.871  1.00  0.00     0.274 HD
ENDBRANCH   8   9
ENDBRANCH   7   8
ENDBRANCH   1   7
TORSDOF 5
ENDMDL
MODEL 9
REMARK VINA RESULT:      -3.4      6.876      7.196
REMARK  5 active torsions:
REMARK  status: ('A' for Active; 'I' for Inactive)
REMARK    1  A    between atoms: N1_1  and  C3_5 
REMARK    2  A    between atoms: C3_5  and  C1_6 
REMARK    3  A    between atoms: C1_6  and  C2_7 
REMARK    4  A    between atoms: C2_7  and  C4_8 
REMARK    5  A    between atoms: C4_8  and  N2_9 
ROOT
ATOM      1  C1  PUT     1       5.190  68.444  62.089  1.00  0.00     0.029 C 
ENDROOT
BRANCH   1   2
ATOM      2  C3  PUT     1       3.940  68.141  61.262  1.00  0.00     0.229 C 
BRANCH   2   3
ATOM      3  N1  PUT     1       4.036  68.754  59.884  1.00  0.00    -0.079 N 
ATOM      4  H9  PUT     1       4.968  68.686  59.498  1.00  0.00     0.274 HD
ATOM      5  H10 PUT     1       3.799  69.739  59.909  1.00  0.00     0.274 HD
ATOM      6  H11 PUT     1       3.404  68.317  59.226  1.00  0.00     0.274 HD
ENDBRANCH   2   3
ENDBRANCH   1   2
BRANCH   1   7
ATOM      7  C2  PUT     1       4.858  68.473  63.591  1.00  0.00     0.029 C 
BRANCH   7   8
ATOM      8  C4  PUT     1       6.048  67.988  64.421  1.00  0.00     0.229 C 
BRANCH   8   9
ATOM      9  N2  PUT     1       6.683  69.128  65.182  1.00  0.00    -0.079 N 
ATOM     10  H12 PUT     1       6.979  68.829  66.103  1.00  0.00     0.274 HD
ATOM     11  H13 PUT     1       6.045  69.901  65.317  1.00  0.00     0.274 HD
ATOM     12  H14 PUT     1       7.502  69.492  64.713  1.00  0.00     0.274 HD
ENDBRANCH   8   9
ENDBRANCH   7   8
ENDBRANCH   1   7
TORSDOF 5
ENDMDL
