MODEL 1
REMARK VINA RESULT:      -3.4      0.000      0.000
REMARK  5 active torsions:
REMARK  status: ('A' for Active; 'I' for Inactive)
REMARK    1  A    between atoms: N1_1  and  C3_5 
REMARK    2  A    between atoms: C3_5  and  C1_6 
REMARK    3  A    between atoms: C1_6  and  C2_7 
REMARK    4  A    between atoms: C2_7  and  C4_8 
REMARK    5  A    between atoms: C4_8  and  N2_9 
ROOT
ATOM      1  C1  PUT     1       2.442  63.304  69.633  1.00  0.00     0.029 C 
ENDROOT
BRANCH   1   2
ATOM      2  C3  PUT     1       3.087  64.632  69.234  1.00  0.00     0.229 C 
BRANCH   2   3
ATOM      3  N1  PUT     1       2.082  65.760  69.276  1.00  0.00    -0.079 N 
ATOM      4  H9  PUT     1       2.030  66.192  70.189  1.00  0.00     0.274 HD
ATOM      5  H10 PUT     1       1.152  65.426  69.056  1.00  0.00     0.274 HD
ATOM      6  H11 PUT     1       2.298  66.490  68.609  1.00  0.00     0.274 HD
ENDBRANCH   2   3
ENDBRANCH   1   2
BRANCH   1   7
ATOM      7  C2  PUT     1       3.012  62.145  68.796  1.00  0.00     0.029 C 
BRANCH   7   8
ATOM      8  C4  PUT     1       3.313  60.933  69.679  1.00  0.00     0.229 C 
BRANCH   8   9
ATOM      9  N2  PUT     1       3.277  59.653  68.878  1.00  0.00    -0.079 N 
ATOM     10  H12 PUT     1       3.830  58.931  69.324  1.00  0.00     0.274 HD
ATOM     11  H13 PUT     1       3.651  59.774  67.946  1.00  0.00     0.274 HD
ATOM     12  H14 PUT     1       2.339  59.288  68.781  1.00  0.00     0.274 HD
ENDBRANCH   8   9
ENDBRANCH   7   8
ENDBRANCH   1   7
TORSDOF 5
ENDMDL
MODEL 2
REMARK VINA RESULT:      -3.4      0.667      4.146
REMARK  5 active torsions:
REMARK  status: ('A' for Active; 'I' for Inactive)
REMARK    1  A    between atoms: N1_1  and  C3_5 
REMARK    2  A    between atoms: C3_5  and  C1_6 
REMARK    3  A    between atoms: C1_6  and  C2_7 
REMARK    4  A    between atoms: C2_7  and  C4_8 
REMARK    5  A    between atoms: C4_8  and  N2_9 
ROOT
ATOM      1  C1  PUT     1       3.020  61.845  70.205  1.00  0.00     0.029 C 
ENDROOT
BRANCH   1   2
ATOM      2  C3  PUT     1       3.427  61.215  68.872  1.00  0.00     0.229 C 
BRANCH   2   3
ATOM      3  N1  PUT     1       3.267  59.713  68.908  1.00  0.00    -0.079 N 
ATOM      4  H9  PUT     1       3.882  59.277  69.582  1.00  0.00     0.274 HD
ATOM      5  H10 PUT     1       3.482  59.304  68.007  1.00  0.00     0.274 HD
ATOM      6  H11 PUT     1       2.321  59.435  69.138  1.00  0.00     0.274 HD
ENDBRANCH   2   3
ENDBRANCH   1   2
BRANCH   1   7
ATOM      7  C2  PUT     1       2.066  63.032  69.980  1.00  0.00     0.029 C 
BRANCH   7   8
ATOM      8  C4  PUT     1       2.832  64.259  69.485  1.00  0.00     0.229 C 
BRANCH   8   9
ATOM      9  N2  PUT     1       1.931  65.469  69.409  1.00  0.00    -0.079 N 
ATOM     10  H12 PUT     1       2.283  66.141  68.737  1.00  0.00     0.274 HD
ATOM     11  H13 PUT     1       1.861  65.951  70.295  1.00  0.00     0.274 HD
ATOM     12  H14 PUT     1       0.991  65.230  69.121  1.00  0.00     0.274 HD
ENDBRANCH   8   9
ENDBRANCH   7   8
ENDBRANCH   1   7
TORSDOF 5
ENDMDL
MODEL 3
REMARK VINA RESULT:      -3.3      1.988      2.507
REMARK  5 active torsions:
REMARK  status: ('A' for Active; 'I' for Inactive)
REMARK    1  A    between atoms: N1_1  and  C3_5 
REMARK    2  A    between atoms: C3_5  and  C1_6 
REMARK    3  A    between atoms: C1_6  and  C2_7 
REMARK    4  A    between atoms: C2_7  and  C4_8 
REMARK    5  A    between atoms: C4_8  and  N2_9 
ROOT
ATOM      1  C1  PUT     1       3.223  61.209  69.846  1.00  0.00     0.029 C 
ENDROOT
BRANCH   1   2
ATOM      2  C3  PUT     1       2.888  62.097  68.648  1.00  0.00     0.229 C 
BRANCH   2   3
ATOM      3  N1  PUT     1       1.847  63.130  69.009  1.00  0.00    -0.079 N 
ATOM      4  H9  PUT     1       1.267  63.382  68.220  1.00  0.00     0.274 HD
ATOM      5  H10 PUT     1       2.282  63.984  69.338  1.00  0.00     0.274 HD
ATOM      6  H11 PUT     1       1.231  62.812  69.746  1.00  0.00     0.274 HD
ENDBRANCH   2   3
ENDBRANCH   1   2
BRANCH   1   7
ATOM      7  C2  PUT     1       3.345  59.735  69.419  1.00  0.00     0.029 C 
BRANCH   7   8
ATOM      8  C4  PUT     1       3.265  58.808  70.632  1.00  0.00     0.229 C 
BRANCH   8   9
ATOM      9  N2  PUT     1       3.387  57.360  70.220  1.00  0.00    -0.079 N 
ATOM     10  H12 PUT     1       4.112  57.241  69.523  1.00  0.00     0.274 HD
ATOM     11  H13 PUT     1       2.531  57.003  69.816  1.00  0.00     0.274 HD
ATOM     12  H14 PUT     1       3.627  56.759  70.998  1.00  0.00     0.274 HD
ENDBRANCH   8   9
ENDBRANCH   7   8
ENDBRANCH   1   7
TORSDOF 5
ENDMDL
MODEL 4
REMARK VINA RESULT:      -3.2      2.209      3.659
REMARK  5 active torsions:
REMARK  status: ('A' for Active; 'I' for Inactive)
REMARK    1  A    between atoms: N1_1  and  C3_5 
REMARK    2  A    between atoms: C3_5  and  C1_6 
REMARK    3  A    between atoms: C1_6  and  C2_7 
REMARK    4  A    between atoms: C2_7  and  C4_8 
REMARK    5  A    between atoms: C4_8  and  N2_9 
ROOT
ATOM      1  C1  PUT     1       2.546  62.528  69.801  1.00  0.00     0.029 C 
ENDROOT
BRANCH   1   2
ATOM      2  C3  PUT     1       3.210  62.248  68.453  1.00  0.00     0.229 C 
BRANCH   2   3
ATOM      3  N1  PUT     1       3.221  63.483  67.583  1.00  0.00    -0.079 N 
ATOM      4  H9  PUT     1       2.496  64.140  67.840  1.00  0.00     0.274 HD
ATOM      5  H10 PUT     1       3.069  63.244  66.611  1.00  0.00     0.274 HD
ATOM      6  H11 PUT     1       4.104  63.976  67.629  1.00  0.00     0.274 HD
ENDBRANCH   2   3
ENDBRANCH   1   2
BRANCH   1   7
ATOM      7  C2  PUT     1       1.968  63.954  69.841  1.00  0.00     0.029 C 
BRANCH   7   8
ATOM      8  C4  PUT     1       0.569  63.958  70.457  1.00  0.00     0.229 C 
BRANCH   8   9
ATOM      9  N2  PUT     1      -0.355  64.888  69.706  1.00  0.00    -0.079 N 
ATOM     10  H12 PUT     1      -0.917  64.377  69.036  1.00  0.00     0.274 HD
ATOM     11  H13 PUT     1       0.151  65.594  69.188  1.00  0.00     0.274 HD
ATOM     12  H14 PUT     1      -0.998  65.369  70.322  1.00  0.00     0.274 HD
ENDBRANCH   8   9
ENDBRANCH   7   8
ENDBRANCH   1   7
TORSDOF 5
ENDMDL
MODEL 5
REMARK VINA RESULT:      -3.2      2.332      4.670
REMARK  5 active torsions:
REMARK  status: ('A' for Active; 'I' for Inactive)
REMARK    1  A    between atoms: N1_1  and  C3_5 
REMARK    2  A    between atoms: C3_5  and  C1_6 
REMARK    3  A    between atoms: C1_6  and  C2_7 
REMARK    4  A    between atoms: C2_7  and  C4_8 
REMARK    5  A    between atoms: C4_8  and  N2_9 
ROOT
ATOM      1  C1  PUT     1       2.005  61.464  71.720  1.00  0.00     0.029 C 
ENDROOT
BRANCH   1   2
ATOM      2  C3  PUT     1       2.781  60.195  71.365  1.00  0.00     0.229 C 
BRANCH   2   3
ATOM      3  N1  PUT     1       3.500  59.640  72.573  1.00  0.00    -0.079 N 
ATOM      4  H9  PUT     1       4.416  59.280  72.341  1.00  0.00     0.274 HD
ATOM      5  H10 PUT     1       2.979  58.875  72.984  1.00  0.00     0.274 HD
ATOM      6  H11 PUT     1       3.623  60.335  73.298  1.00  0.00     0.274 HD
ENDBRANCH   2   3
ENDBRANCH   1   2
BRANCH   1   7
ATOM      7  C2  PUT     1       2.102  62.500  70.587  1.00  0.00     0.029 C 
BRANCH   7   8
ATOM      8  C4  PUT     1       0.944  63.496  70.660  1.00  0.00     0.229 C 
BRANCH   8   9
ATOM      9  N2  PUT     1       1.243  64.740  69.856  1.00  0.00    -0.079 N 
ATOM     10  H12 PUT     1       0.485  65.408  69.927  1.00  0.00     0.274 HD
ATOM     11  H13 PUT     1       1.365  64.540  68.872  1.00  0.00     0.274 HD
ATOM     12  H14 PUT     1       2.080  65.210  70.174  1.00  0.00     0.274 HD
ENDBRANCH   8   9
ENDBRANCH   7   8
ENDBRANCH   1   7
TORSDOF 5
ENDMDL
MODEL 6
REMARK VINA RESULT:      -3.2      1.692      1.873
REMARK  5 active torsions:
REMARK  status: ('A' for Active; 'I' for Inactive)
REMARK    1  A    between atoms: N1_1  and  C3_5 
REMARK    2  A    between atoms: C3_5  and  C1_6 
REMARK    3  A    between atoms: C1_6  and  C2_7 
REMARK    4  A    between atoms: C2_7  and  C4_8 
REMARK    5  A    between atoms: C4_8  and  N2_9 
ROOT
ATOM      1  C1  PUT     1       2.345  62.763  69.921  1.00  0.00     0.029 C 
ENDROOT
BRANCH   1   2
ATOM      2  C3  PUT     1       1.270  63.807  70.226  1.00  0.00     0.229 C 
BRANCH   2   3
ATOM      3  N1  PUT     1       1.610  65.139  69.599  1.00  0.00    -0.079 N 
ATOM      4  H9  PUT     1       2.175  65.038  68.766  1.00  0.00     0.274 HD
ATOM      5  H10 PUT     1       2.136  65.719  70.241  1.00  0.00     0.274 HD
ATOM      6  H11 PUT     1       0.783  65.662  69.340  1.00  0.00     0.274 HD
ENDBRANCH   2   3
ENDBRANCH   1   2
BRANCH   1   7
ATOM      7  C2  PUT     1       2.367  61.668  71.002  1.00  0.00     0.029 C 
BRANCH   7   8
ATOM      8  C4  PUT     1       3.382  60.579  70.652  1.00  0.00     0.229 C 
BRANCH   8   9
ATOM      9  N2  PUT     1       3.499  59.566  71.766  1.00  0.00    -0.079 N 
ATOM     10  H12 PUT     1       2.714  58.927  71.759  1.00  0.00     0.274 HD
ATOM     11  H13 PUT     1       3.515  60.000  72.680  1.00  0.00     0.274 HD
ATOM     12  H14 PUT     1       4.336  59.003  71.686  1.00  0.00     0.274 HD
ENDBRANCH   8   9
ENDBRANCH   7   8
ENDBRANCH   1   7
TORSDOF 5
ENDMDL
MODEL 7
REMARK VINA RESULT:      -3.1      4.655      5.037
REMARK  5 active torsions:
REMARK  status: ('A' for Active; 'I' for Inactive)
REMARK    1  A    between atoms: N1_1  and  C3_5 
REMARK    2  A    between atoms: C3_5  and  C1_6 
REMARK    3  A    between atoms: C1_6  and  C2_7 
REMARK    4  A    between atoms: C2_7  and  C4_8 
REMARK    5  A    between atoms: C4_8  and  N2_9 
ROOT
ATOM      1  C1  PUT     1       1.968  59.992  72.014  1.00  0.00     0.029 C 
ENDROOT
BRANCH   1   2
ATOM      2  C3  PUT     1       1.921  59.795  73.529  1.00  0.00     0.229 C 
BRANCH   2   3
ATOM      3  N1  PUT     1       3.011  58.857  73.992  1.00  0.00    -0.079 N 
ATOM      4  H9  PUT     1       2.693  57.899  74.052  1.00  0.00     0.274 HD
ATOM      5  H10 PUT     1       3.344  59.115  74.913  1.00  0.00     0.274 HD
ATOM      6  H11 PUT     1       3.814  58.871  73.375  1.00  0.00     0.274 HD
ENDBRANCH   2   3
ENDBRANCH   1   2
BRANCH   1   7
ATOM      7  C2  PUT     1       3.419  59.947  71.501  1.00  0.00     0.029 C 
BRANCH   7   8
ATOM      8  C4  PUT     1       3.500  59.211  70.164  1.00  0.00     0.229 C 
BRANCH   8   9
ATOM      9  N2  PUT     1       3.306  57.723  70.348  1.00  0.00    -0.079 N 
ATOM     10  H12 PUT     1       2.986  57.291  69.490  1.00  0.00     0.274 HD
ATOM     11  H13 PUT     1       2.616  57.512  71.057  1.00  0.00     0.274 HD
ATOM     12  H14 PUT     1       4.163  57.255  70.612  1.00  0.00     0.274 HD
ENDBRANCH   8   9
ENDBRANCH   7   8
ENDBRANCH   1   7
TORSDOF 5
ENDMDL
MODEL 8
REMARK VINA RESULT:      -3.1      2.497      4.063
REMARK  5 active torsions:
REMARK  status: ('A' for Active; 'I' for Inactive)
REMARK    1  A    between atoms: N1_1  and  C3_5 
REMARK    2  A    between atoms: C3_5  and  C1_6 
REMARK    3  A    between atoms: C1_6  and  C2_7 
REMARK    4  A    between atoms: C2_7  and  C4_8 
REMARK    5  A    between atoms: C4_8  and  N2_9 
ROOT
ATOM      1  C1  PUT     1       1.965  61.422  71.743  1.00  0.00     0.029 C 
ENDROOT
BRANCH   1   2
ATOM      2  C3  PUT     1       2.899  60.253  71.431  1.00  0.00     0.229 C 
BRANCH   2   3
ATOM      3  N1  PUT     1       3.500  59.682  72.695  1.00  0.00    -0.079 N 
ATOM      4  H9  PUT     1       4.469  59.420  72.574  1.00  0.00     0.274 HD
ATOM      5  H10 PUT     1       3.004  58.849  72.988  1.00  0.00     0.274 HD
ATOM      6  H11 PUT     1       3.459  60.336  73.466  1.00  0.00     0.274 HD
ENDBRANCH   2   3
ENDBRANCH   1   2
BRANCH   1   7
ATOM      7  C2  PUT     1       1.969  62.447  70.595  1.00  0.00     0.029 C 
BRANCH   7   8
ATOM      8  C4  PUT     1       2.894  61.996  69.465  1.00  0.00     0.229 C 
BRANCH   8   9
ATOM      9  N2  PUT     1       2.582  62.726  68.180  1.00  0.00    -0.079 N 
ATOM     10  H12 PUT     1       3.179  62.407  67.427  1.00  0.00     0.274 HD
ATOM     11  H13 PUT     1       2.724  63.724  68.262  1.00  0.00     0.274 HD
ATOM     12  H14 PUT     1       1.627  62.581  67.879  1.00  0.00     0.274 HD
ENDBRANCH   8   9
ENDBRANCH   7   8
ENDBRANCH   1   7
TORSDOF 5
ENDMDL
MODEL 9
REMARK VINA RESULT:      -3.0      2.650      2.953
REMARK  5 active torsions:
REMARK  status: ('A' for Active; 'I' for Inactive)
REMARK    1  A    between atoms: N1_1  and  C3_5 
REMARK    2  A    between atoms: C3_5  and  C1_6 
REMARK    3  A    between atoms: C1_6  and  C2_7 
REMARK    4  A    between atoms: C2_7  and  C4_8 
REMARK    5  A    between atoms: C4_8  and  N2_9 
ROOT
ATOM      1  C1  PUT     1       1.649  62.301  71.064  1.00  0.00     0.029 C 
ENDROOT
BRANCH   1   2
ATOM      2  C3  PUT     1       2.812  62.366  70.074  1.00  0.00     0.229 C 
BRANCH   2   3
ATOM      3  N1  PUT     1       2.319  62.626  68.669  1.00  0.00    -0.079 N 
ATOM      4  H9  PUT     1       2.966  62.292  67.968  1.00  0.00     0.274 HD
ATOM      5  H10 PUT     1       2.196  63.618  68.507  1.00  0.00     0.274 HD
ATOM      6  H11 PUT     1       1.426  62.186  68.490  1.00  0.00     0.274 HD
ENDBRANCH   2   3
ENDBRANCH   1   2
BRANCH   1   7
ATOM      7  C2  PUT     1       1.635  60.952  71.805  1.00  0.00     0.029 C 
BRANCH   7   8
ATOM      8  C4  PUT     1       2.934  60.183  71.560  1.00  0.00     0.229 C 
BRANCH   8   9
ATOM      9  N2  PUT     1       3.499  59.641  72.853  1.00  0.00    -0.079 N 
ATOM     10  H12 PUT     1       2.996  58.814  73.149  1.00  0.00     0.274 HD
ATOM     11  H13 PUT     1       3.433  60.310  73.609  1.00  0.00     0.274 HD
ATOM     12  H14 PUT     1       4.472  59.379  72.765  1.00  0.00     0.274 HD
ENDBRANCH   8   9
ENDBRANCH   7   8
ENDBRANCH   1   7
TORSDOF 5
ENDMDL
