REMARK  13 active torsions:
REMARK  status: ('A' for Active; 'I' for Inactive)
REMARK    1  A    between atoms: N1_1  and  C1_5 
REMARK    2  A    between atoms: C1_5  and  C2_6 
REMARK    3  A    between atoms: C2_6  and  C3_7 
REMARK    4  A    between atoms: C3_7  and  N2_8 
REMARK    5  A    between atoms: N2_8  and  C4_11 
REMARK    6  A    between atoms: C4_11  and  C5_12 
REMARK    7  A    between atoms: C5_12  and  C6_13 
REMARK    8  A    between atoms: C6_13  and  C7_14 
REMARK    9  A    between atoms: C7_14  and  N3_15 
REMARK   10  A    between atoms: N3_15  and  C8_18 
REMARK   11  A    between atoms: C8_18  and  C9_19 
REMARK   12  A    between atoms: C9_19  and  C10_20 
REMARK   13  A    between atoms: C10_20  and  N4_21 
ROOT
ATOM      1  C5  SPM     1      -4.037   1.296  -0.000  1.00  0.00     0.029 C 
ENDROOT
BRANCH   1   2
ATOM      2  C6  SPM     1      -5.334   2.140  -0.000  1.00  0.00     0.029 C 
BRANCH   2   3
ATOM      3  C7  SPM     1      -6.581   1.242  -0.000  1.00  0.00     0.232 C 
BRANCH   3   4
ATOM      4  N3  SPM     1      -7.862   2.056  -0.000  1.00  0.00    -0.075 N 
ATOM      5  H21 SPM     1      -7.865   2.667   0.806  1.00  0.00     0.277 HD
ATOM      6  H20 SPM     1      -7.865   2.667  -0.806  1.00  0.00     0.277 HD
BRANCH   4   7
ATOM      7  C8  SPM     1      -9.126   1.222  -0.000  1.00  0.00     0.233 C 
BRANCH   7   8
ATOM      8  C9  SPM     1     -10.391   2.095  -0.000  1.00  0.00     0.055 C 
BRANCH   8   9
ATOM      9  C10 SPM     1     -11.642   1.203  -0.000  1.00  0.00     0.231 C 
BRANCH   9  10
ATOM     10  N4  SPM     1     -12.911   2.016  -0.000  1.00  0.00    -0.079 N 
ATOM     11  H30 SPM     1     -13.001   2.608  -0.817  1.00  0.00     0.274 HD
ATOM     12  H29 SPM     1     -13.722   1.404  -0.000  1.00  0.00     0.274 HD
ATOM     13  H28 SPM     1     -13.001   2.608   0.817  1.00  0.00     0.274 HD
ENDBRANCH   9  10
ENDBRANCH   8   9
ENDBRANCH   7   8
ENDBRANCH   4   7
ENDBRANCH   3   4
ENDBRANCH   2   3
ENDBRANCH   1   2
BRANCH   1  14
ATOM     14  C4  SPM     1      -2.790   2.194  -0.000  1.00  0.00     0.232 C 
BRANCH  14  15
ATOM     15  N2  SPM     1      -1.509   1.379  -0.000  1.00  0.00    -0.075 N 
ATOM     16  H11 SPM     1      -1.506   0.769  -0.806  1.00  0.00     0.277 HD
ATOM     17  H10 SPM     1      -1.506   0.769   0.806  1.00  0.00     0.277 HD
BRANCH  15  18
ATOM     18  C3  SPM     1      -0.246   2.214  -0.000  1.00  0.00     0.233 C 
BRANCH  18  19
ATOM     19  C2  SPM     1       1.020   1.340  -0.000  1.00  0.00     0.055 C 
BRANCH  19  20
ATOM     20  C1  SPM     1       2.271   2.233  -0.000  1.00  0.00     0.231 C 
BRANCH  20  21
ATOM     21  N1  SPM     1       3.540   1.420   0.000  1.00  0.00    -0.079 N 
ATOM     22  H3  SPM     1       3.630   0.828   0.817  1.00  0.00     0.274 HD
ATOM     23  H2  SPM     1       3.630   0.828  -0.817  1.00  0.00     0.274 HD
ATOM     24  H1  SPM     1       4.350   2.031   0.000  1.00  0.00     0.274 HD
ENDBRANCH  20  21
ENDBRANCH  19  20
ENDBRANCH  18  19
ENDBRANCH  15  18
ENDBRANCH  14  15
ENDBRANCH   1  14
TORSDOF 13
