MODEL 1
REMARK VINA RESULT:      -4.2      0.000      0.000
REMARK  13 active torsions:
REMARK  status: ('A' for Active; 'I' for Inactive)
REMARK    1  A    between atoms: N1_1  and  C1_5 
REMARK    2  A    between atoms: C1_5  and  C2_6 
REMARK    3  A    between atoms: C2_6  and  C3_7 
REMARK    4  A    between atoms: C3_7  and  N2_8 
REMARK    5  A    between atoms: N2_8  and  C4_11 
REMARK    6  A    between atoms: C4_11  and  C5_12 
REMARK    7  A    between atoms: C5_12  and  C6_13 
REMARK    8  A    between atoms: C6_13  and  C7_14 
REMARK    9  A    between atoms: C7_14  and  N3_15 
REMARK   10  A    between atoms: N3_15  and  C8_18 
REMARK   11  A    between atoms: C8_18  and  C9_19 
REMARK   12  A    between atoms: C9_19  and  C10_20 
REMARK   13  A    between atoms: C10_20  and  N4_21 
ROOT
ATOM      1  C5  SPM     1       0.673  57.465  73.559  1.00  0.00     0.029 C 
ENDROOT
BRANCH   1   2
ATOM      2  C6  SPM     1       0.759  58.939  73.096  1.00  0.00     0.029 C 
BRANCH   2   3
ATOM      3  C7  SPM     1       1.853  59.700  73.862  1.00  0.00     0.232 C 
BRANCH   3   4
ATOM      4  N3  SPM     1       1.999  61.127  73.367  1.00  0.00    -0.075 N 
ATOM      5  H21 SPM     1       1.404  61.730  73.919  1.00  0.00     0.277 HD
ATOM      6  H20 SPM     1       2.944  61.442  73.541  1.00  0.00     0.277 HD
BRANCH   4   7
ATOM      7  C8  SPM     1       1.673  61.311  71.900  1.00  0.00     0.233 C 
BRANCH   7   8
ATOM      8  C9  SPM     1       0.929  62.629  71.636  1.00  0.00     0.055 C 
BRANCH   8   9
ATOM      9  C10 SPM     1       1.466  63.287  70.356  1.00  0.00     0.231 C 
BRANCH   9  10
ATOM     10  N4  SPM     1       0.630  64.470  69.939  1.00  0.00    -0.079 N 
ATOM     11  H30 SPM     1       0.176  64.927  70.720  1.00  0.00     0.274 HD
ATOM     12  H29 SPM     1       1.212  65.174  69.494  1.00  0.00     0.274 HD
ATOM     13  H28 SPM     1      -0.088  64.228  69.267  1.00  0.00     0.274 HD
ENDBRANCH   9  10
ENDBRANCH   8   9
ENDBRANCH   7   8
ENDBRANCH   4   7
ENDBRANCH   3   4
ENDBRANCH   2   3
ENDBRANCH   1   2
BRANCH   1  14
ATOM     14  C4  SPM     1       1.700  56.591  72.823  1.00  0.00     0.232 C 
BRANCH  14  15
ATOM     15  N2  SPM     1       1.623  55.140  73.264  1.00  0.00    -0.075 N 
ATOM     16  H11 SPM     1       2.184  55.018  74.097  1.00  0.00     0.277 HD
ATOM     17  H10 SPM     1       2.050  54.557  72.558  1.00  0.00     0.277 HD
BRANCH  15  18
ATOM     18  C3  SPM     1       0.216  54.650  73.534  1.00  0.00     0.233 C 
BRANCH  18  19
ATOM     19  C2  SPM     1       0.119  53.885  74.865  1.00  0.00     0.055 C 
BRANCH  19  20
ATOM     20  C1  SPM     1      -0.444  52.476  74.617  1.00  0.00     0.231 C 
BRANCH  20  21
ATOM     21  N1  SPM     1      -1.786  52.521  73.933  1.00  0.00    -0.079 N 
ATOM     22  H3  SPM     1      -2.203  51.605  73.820  1.00  0.00     0.274 HD
ATOM     23  H2  SPM     1      -2.457  53.104  74.418  1.00  0.00     0.274 HD
ATOM     24  H1  SPM     1      -1.693  52.910  73.000  1.00  0.00     0.274 HD
ENDBRANCH  20  21
ENDBRANCH  19  20
ENDBRANCH  18  19
ENDBRANCH  15  18
ENDBRANCH  14  15
ENDBRANCH   1  14
TORSDOF 13
ENDMDL
MODEL 2
REMARK VINA RESULT:      -4.1      1.141      8.458
REMARK  13 active torsions:
REMARK  status: ('A' for Active; 'I' for Inactive)
REMARK    1  A    between atoms: N1_1  and  C1_5 
REMARK    2  A    between atoms: C1_5  and  C2_6 
REMARK    3  A    between atoms: C2_6  and  C3_7 
REMARK    4  A    between atoms: C3_7  and  N2_8 
REMARK    5  A    between atoms: N2_8  and  C4_11 
REMARK    6  A    between atoms: C4_11  and  C5_12 
REMARK    7  A    between atoms: C5_12  and  C6_13 
REMARK    8  A    between atoms: C6_13  and  C7_14 
REMARK    9  A    between atoms: C7_14  and  N3_15 
REMARK   10  A    between atoms: N3_15  and  C8_18 
REMARK   11  A    between atoms: C8_18  and  C9_19 
REMARK   12  A    between atoms: C9_19  and  C10_20 
REMARK   13  A    between atoms: C10_20  and  N4_21 
ROOT
ATOM      1  C5  SPM     1       0.645  59.201  73.050  1.00  0.00     0.029 C 
ENDROOT
BRANCH   1   2
ATOM      2  C6  SPM     1       1.597  58.073  72.587  1.00  0.00     0.029 C 
BRANCH   2   3
ATOM      3  C7  SPM     1       1.199  56.722  73.201  1.00  0.00     0.232 C 
BRANCH   3   4
ATOM      4  N3  SPM     1      -0.308  56.578  73.318  1.00  0.00    -0.075 N 
ATOM      5  H21 SPM     1      -0.681  57.387  73.797  1.00  0.00     0.277 HD
ATOM      6  H20 SPM     1      -0.714  56.598  72.392  1.00  0.00     0.277 HD
BRANCH   4   7
ATOM      7  C8  SPM     1      -0.757  55.321  74.033  1.00  0.00     0.233 C 
BRANCH   7   8
ATOM      8  C9  SPM     1       0.260  54.178  73.880  1.00  0.00     0.055 C 
BRANCH   8   9
ATOM      9  C10 SPM     1      -0.366  52.856  74.350  1.00  0.00     0.231 C 
BRANCH   9  10
ATOM     10  N4  SPM     1      -1.746  52.654  73.781  1.00  0.00    -0.079 N 
ATOM     11  H30 SPM     1      -2.458  53.176  74.276  1.00  0.00     0.274 HD
ATOM     12  H29 SPM     1      -1.779  52.970  72.816  1.00  0.00     0.274 HD
ATOM     13  H28 SPM     1      -2.031  51.682  73.771  1.00  0.00     0.274 HD
ENDBRANCH   9  10
ENDBRANCH   8   9
ENDBRANCH   7   8
ENDBRANCH   4   7
ENDBRANCH   3   4
ENDBRANCH   2   3
ENDBRANCH   1   2
BRANCH   1  14
ATOM     14  C4  SPM     1       1.144  60.577  72.582  1.00  0.00     0.232 C 
BRANCH  14  15
ATOM     15  N2  SPM     1       0.059  61.634  72.684  1.00  0.00    -0.075 N 
ATOM     16  H11 SPM     1      -0.091  61.860  73.657  1.00  0.00     0.277 HD
ATOM     17  H10 SPM     1      -0.814  61.244  72.355  1.00  0.00     0.277 HD
BRANCH  15  18
ATOM     18  C3  SPM     1       0.360  62.904  71.916  1.00  0.00     0.233 C 
BRANCH  18  19
ATOM     19  C2  SPM     1       1.545  62.723  70.951  1.00  0.00     0.055 C 
BRANCH  19  20
ATOM     20  C1  SPM     1       1.506  63.812  69.867  1.00  0.00     0.231 C 
BRANCH  20  21
ATOM     21  N1  SPM     1       0.256  64.650  69.959  1.00  0.00    -0.079 N 
ATOM     22  H3  SPM     1      -0.438  64.256  70.582  1.00  0.00     0.274 HD
ATOM     23  H2  SPM     1       0.438  65.598  70.265  1.00  0.00     0.274 HD
ATOM     24  H1  SPM     1      -0.186  64.724  69.049  1.00  0.00     0.274 HD
ENDBRANCH  20  21
ENDBRANCH  19  20
ENDBRANCH  18  19
ENDBRANCH  15  18
ENDBRANCH  14  15
ENDBRANCH   1  14
TORSDOF 13
ENDMDL
MODEL 3
REMARK VINA RESULT:      -4.1      1.533      7.845
REMARK  13 active torsions:
REMARK  status: ('A' for Active; 'I' for Inactive)
REMARK    1  A    between atoms: N1_1  and  C1_5 
REMARK    2  A    between atoms: C1_5  and  C2_6 
REMARK    3  A    between atoms: C2_6  and  C3_7 
REMARK    4  A    between atoms: C3_7  and  N2_8 
REMARK    5  A    between atoms: N2_8  and  C4_11 
REMARK    6  A    between atoms: C4_11  and  C5_12 
REMARK    7  A    between atoms: C5_12  and  C6_13 
REMARK    8  A    between atoms: C6_13  and  C7_14 
REMARK    9  A    between atoms: C7_14  and  N3_15 
REMARK   10  A    between atoms: N3_15  and  C8_18 
REMARK   11  A    between atoms: C8_18  and  C9_19 
REMARK   12  A    between atoms: C9_19  and  C10_20 
REMARK   13  A    between atoms: C10_20  and  N4_21 
ROOT
ATOM      1  C5  SPM     1       1.734  58.582  72.665  1.00  0.00     0.029 C 
ENDROOT
BRANCH   1   2
ATOM      2  C6  SPM     1       0.932  57.276  72.879  1.00  0.00     0.029 C 
BRANCH   2   3
ATOM      3  C7  SPM     1       1.701  56.293  73.776  1.00  0.00     0.232 C 
BRANCH   3   4
ATOM      4  N3  SPM     1       1.551  54.859  73.300  1.00  0.00    -0.075 N 
ATOM      5  H21 SPM     1       1.722  54.823  72.303  1.00  0.00     0.277 HD
ATOM      6  H20 SPM     1       2.275  54.293  73.722  1.00  0.00     0.277 HD
BRANCH   4   7
ATOM      7  C8  SPM     1       0.198  54.246  73.598  1.00  0.00     0.233 C 
BRANCH   7   8
ATOM      8  C9  SPM     1       0.152  53.608  74.995  1.00  0.00     0.055 C 
BRANCH   8   9
ATOM      9  C10 SPM     1      -1.208  52.928  75.215  1.00  0.00     0.231 C 
BRANCH   9  10
ATOM     10  N4  SPM     1      -1.820  52.466  73.917  1.00  0.00    -0.079 N 
ATOM     11  H30 SPM     1      -2.755  52.093  74.032  1.00  0.00     0.274 HD
ATOM     12  H29 SPM     1      -1.900  53.243  73.268  1.00  0.00     0.274 HD
ATOM     13  H28 SPM     1      -1.266  51.759  73.448  1.00  0.00     0.274 HD
ENDBRANCH   9  10
ENDBRANCH   8   9
ENDBRANCH   7   8
ENDBRANCH   4   7
ENDBRANCH   3   4
ENDBRANCH   2   3
ENDBRANCH   1   2
BRANCH   1  14
ATOM     14  C4  SPM     1       2.000  59.295  74.000  1.00  0.00     0.232 C 
BRANCH  14  15
ATOM     15  N2  SPM     1       1.955  60.806  73.850  1.00  0.00    -0.075 N 
ATOM     16  H11 SPM     1       2.813  61.199  74.211  1.00  0.00     0.277 HD
ATOM     17  H10 SPM     1       1.217  61.173  74.434  1.00  0.00     0.277 HD
BRANCH  15  18
ATOM     18  C3  SPM     1       1.748  61.279  72.426  1.00  0.00     0.233 C 
BRANCH  18  19
ATOM     19  C2  SPM     1       0.498  62.166  72.292  1.00  0.00     0.055 C 
BRANCH  19  20
ATOM     20  C1  SPM     1      -0.635  61.607  73.168  1.00  0.00     0.231 C 
BRANCH  20  21
ATOM     21  N1  SPM     1      -1.704  62.638  73.425  1.00  0.00    -0.079 N 
ATOM     22  H3  SPM     1      -1.831  63.277  72.650  1.00  0.00     0.274 HD
ATOM     23  H2  SPM     1      -2.607  62.227  73.633  1.00  0.00     0.274 HD
ATOM     24  H1  SPM     1      -1.458  63.207  74.228  1.00  0.00     0.274 HD
ENDBRANCH  20  21
ENDBRANCH  19  20
ENDBRANCH  18  19
ENDBRANCH  15  18
ENDBRANCH  14  15
ENDBRANCH   1  14
TORSDOF 13
ENDMDL
MODEL 4
REMARK VINA RESULT:      -3.9      1.627      1.858
REMARK  13 active torsions:
REMARK  status: ('A' for Active; 'I' for Inactive)
REMARK    1  A    between atoms: N1_1  and  C1_5 
REMARK    2  A    between atoms: C1_5  and  C2_6 
REMARK    3  A    between atoms: C2_6  and  C3_7 
REMARK    4  A    between atoms: C3_7  and  N2_8 
REMARK    5  A    between atoms: N2_8  and  C4_11 
REMARK    6  A    between atoms: C4_11  and  C5_12 
REMARK    7  A    between atoms: C5_12  and  C6_13 
REMARK    8  A    between atoms: C6_13  and  C7_14 
REMARK    9  A    between atoms: C7_14  and  N3_15 
REMARK   10  A    between atoms: N3_15  and  C8_18 
REMARK   11  A    between atoms: C8_18  and  C9_19 
REMARK   12  A    between atoms: C9_19  and  C10_20 
REMARK   13  A    between atoms: C10_20  and  N4_21 
ROOT
ATOM      1  C5  SPM     1       0.111  58.290  73.653  1.00  0.00     0.029 C 
ENDROOT
BRANCH   1   2
ATOM      2  C6  SPM     1       0.699  59.604  73.086  1.00  0.00     0.029 C 
BRANCH   2   3
ATOM      3  C7  SPM     1       1.101  60.565  74.216  1.00  0.00     0.232 C 
BRANCH   3   4
ATOM      4  N3  SPM     1       1.015  62.016  73.780  1.00  0.00    -0.075 N 
ATOM      5  H21 SPM     1       0.354  62.500  74.373  1.00  0.00     0.277 HD
ATOM      6  H20 SPM     1       1.907  62.464  73.942  1.00  0.00     0.277 HD
BRANCH   4   7
ATOM      7  C8  SPM     1       0.617  62.204  72.331  1.00  0.00     0.233 C 
BRANCH   7   8
ATOM      8  C9  SPM     1      -0.525  63.221  72.175  1.00  0.00     0.055 C 
BRANCH   8   9
ATOM      9  C10 SPM     1      -0.868  63.835  73.541  1.00  0.00     0.231 C 
BRANCH   9  10
ATOM     10  N4  SPM     1      -0.663  65.328  73.552  1.00  0.00    -0.079 N 
ATOM     11  H30 SPM     1      -0.024  65.634  74.277  1.00  0.00     0.274 HD
ATOM     12  H29 SPM     1      -0.263  65.636  72.670  1.00  0.00     0.274 HD
ATOM     13  H28 SPM     1      -1.526  65.845  73.669  1.00  0.00     0.274 HD
ENDBRANCH   9  10
ENDBRANCH   8   9
ENDBRANCH   7   8
ENDBRANCH   4   7
ENDBRANCH   3   4
ENDBRANCH   2   3
ENDBRANCH   1   2
BRANCH   1  14
ATOM     14  C4  SPM     1       0.723  57.063  72.960  1.00  0.00     0.232 C 
BRANCH  14  15
ATOM     15  N2  SPM     1       1.694  56.329  73.868  1.00  0.00    -0.075 N 
ATOM     16  H11 SPM     1       2.018  56.963  74.585  1.00  0.00     0.277 HD
ATOM     17  H10 SPM     1       2.514  56.073  73.336  1.00  0.00     0.277 HD
BRANCH  15  18
ATOM     18  C3  SPM     1       1.114  55.091  74.519  1.00  0.00     0.233 C 
BRANCH  18  19
ATOM     19  C2  SPM     1      -0.037  54.493  73.692  1.00  0.00     0.055 C 
BRANCH  19  20
ATOM     20  C1  SPM     1      -0.381  53.089  74.216  1.00  0.00     0.231 C 
BRANCH  20  21
ATOM     21  N1  SPM     1      -1.758  52.652  73.785  1.00  0.00    -0.079 N 
ATOM     22  H3  SPM     1      -2.282  52.208  74.529  1.00  0.00     0.274 HD
ATOM     23  H2  SPM     1      -2.321  53.415  73.428  1.00  0.00     0.274 HD
ATOM     24  H1  SPM     1      -1.693  51.971  73.036  1.00  0.00     0.274 HD
ENDBRANCH  20  21
ENDBRANCH  19  20
ENDBRANCH  18  19
ENDBRANCH  15  18
ENDBRANCH  14  15
ENDBRANCH   1  14
TORSDOF 13
ENDMDL
MODEL 5
REMARK VINA RESULT:      -3.9      1.288      1.537
REMARK  13 active torsions:
REMARK  status: ('A' for Active; 'I' for Inactive)
REMARK    1  A    between atoms: N1_1  and  C1_5 
REMARK    2  A    between atoms: C1_5  and  C2_6 
REMARK    3  A    between atoms: C2_6  and  C3_7 
REMARK    4  A    between atoms: C3_7  and  N2_8 
REMARK    5  A    between atoms: N2_8  and  C4_11 
REMARK    6  A    between atoms: C4_11  and  C5_12 
REMARK    7  A    between atoms: C5_12  and  C6_13 
REMARK    8  A    between atoms: C6_13  and  C7_14 
REMARK    9  A    between atoms: C7_14  and  N3_15 
REMARK   10  A    between atoms: N3_15  and  C8_18 
REMARK   11  A    between atoms: C8_18  and  C9_19 
REMARK   12  A    between atoms: C9_19  and  C10_20 
REMARK   13  A    between atoms: C10_20  and  N4_21 
ROOT
ATOM      1  C5  SPM     1       0.864  58.672  73.654  1.00  0.00     0.029 C 
ENDROOT
BRANCH   1   2
ATOM      2  C6  SPM     1       0.701  60.020  72.912  1.00  0.00     0.029 C 
BRANCH   2   3
ATOM      3  C7  SPM     1       1.505  61.134  73.601  1.00  0.00     0.232 C 
BRANCH   3   4
ATOM      4  N3  SPM     1       0.659  62.369  73.849  1.00  0.00    -0.075 N 
ATOM      5  H21 SPM     1       0.221  62.292  74.758  1.00  0.00     0.277 HD
ATOM      6  H20 SPM     1       1.263  63.178  73.905  1.00  0.00     0.277 HD
BRANCH   4   7
ATOM      7  C8  SPM     1      -0.406  62.612  72.800  1.00  0.00     0.233 C 
BRANCH   7   8
ATOM      8  C9  SPM     1      -0.172  63.926  72.037  1.00  0.00     0.055 C 
BRANCH   8   9
ATOM      9  C10 SPM     1       0.479  63.632  70.677  1.00  0.00     0.231 C 
BRANCH   9  10
ATOM     10  N4  SPM     1       0.687  64.889  69.871  1.00  0.00    -0.079 N 
ATOM     11  H30 SPM     1      -0.086  65.092  69.250  1.00  0.00     0.274 HD
ATOM     12  H29 SPM     1       0.778  65.691  70.487  1.00  0.00     0.274 HD
ATOM     13  H28 SPM     1       1.530  64.863  69.310  1.00  0.00     0.274 HD
ENDBRANCH   9  10
ENDBRANCH   8   9
ENDBRANCH   7   8
ENDBRANCH   4   7
ENDBRANCH   3   4
ENDBRANCH   2   3
ENDBRANCH   1   2
BRANCH   1  14
ATOM     14  C4  SPM     1       1.011  57.507  72.663  1.00  0.00     0.232 C 
BRANCH  14  15
ATOM     15  N2  SPM     1       1.989  56.460  73.165  1.00  0.00    -0.075 N 
ATOM     16  H11 SPM     1       2.673  56.906  73.761  1.00  0.00     0.277 HD
ATOM     17  H10 SPM     1       2.508  56.090  72.381  1.00  0.00     0.277 HD
BRANCH  15  18
ATOM     18  C3  SPM     1       1.339  55.319  73.918  1.00  0.00     0.233 C 
BRANCH  18  19
ATOM     19  C2  SPM     1      -0.140  55.143  73.530  1.00  0.00     0.055 C 
BRANCH  19  20
ATOM     20  C1  SPM     1      -0.778  54.040  74.390  1.00  0.00     0.231 C 
BRANCH  20  21
ATOM     21  N1  SPM     1      -0.325  52.667  73.967  1.00  0.00    -0.079 N 
ATOM     22  H3  SPM     1       0.651  52.638  73.698  1.00  0.00     0.274 HD
ATOM     23  H2  SPM     1      -0.464  51.966  74.685  1.00  0.00     0.274 HD
ATOM     24  H1  SPM     1      -0.853  52.355  73.159  1.00  0.00     0.274 HD
ENDBRANCH  20  21
ENDBRANCH  19  20
ENDBRANCH  18  19
ENDBRANCH  15  18
ENDBRANCH  14  15
ENDBRANCH   1  14
TORSDOF 13
ENDMDL
MODEL 6
REMARK VINA RESULT:      -3.9      2.826      4.481
REMARK  13 active torsions:
REMARK  status: ('A' for Active; 'I' for Inactive)
REMARK    1  A    between atoms: N1_1  and  C1_5 
REMARK    2  A    between atoms: C1_5  and  C2_6 
REMARK    3  A    between atoms: C2_6  and  C3_7 
REMARK    4  A    between atoms: C3_7  and  N2_8 
REMARK    5  A    between atoms: N2_8  and  C4_11 
REMARK    6  A    between atoms: C4_11  and  C5_12 
REMARK    7  A    between atoms: C5_12  and  C6_13 
REMARK    8  A    between atoms: C6_13  and  C7_14 
REMARK    9  A    between atoms: C7_14  and  N3_15 
REMARK   10  A    between atoms: N3_15  and  C8_18 
REMARK   11  A    between atoms: C8_18  and  C9_19 
REMARK   12  A    between atoms: C9_19  and  C10_20 
REMARK   13  A    between atoms: C10_20  and  N4_21 
ROOT
ATOM      1  C5  SPM     1       0.712  60.834  72.459  1.00  0.00     0.029 C 
ENDROOT
BRANCH   1   2
ATOM      2  C6  SPM     1       0.709  62.325  72.047  1.00  0.00     0.029 C 
BRANCH   2   3
ATOM      3  C7  SPM     1      -0.577  63.027  72.510  1.00  0.00     0.232 C 
BRANCH   3   4
ATOM      4  N3  SPM     1      -0.403  64.533  72.584  1.00  0.00    -0.075 N 
ATOM      5  H21 SPM     1       0.582  64.754  72.525  1.00  0.00     0.277 HD
ATOM      6  H20 SPM     1      -0.827  64.955  71.768  1.00  0.00     0.277 HD
BRANCH   4   7
ATOM      7  C8  SPM     1      -0.985  65.163  73.832  1.00  0.00     0.233 C 
BRANCH   7   8
ATOM      8  C9  SPM     1      -0.094  64.929  75.063  1.00  0.00     0.055 C 
BRANCH   8   9
ATOM      9  C10 SPM     1      -0.857  64.105  76.112  1.00  0.00     0.231 C 
BRANCH   9  10
ATOM     10  N4  SPM     1      -2.296  63.890  75.718  1.00  0.00    -0.079 N 
ATOM     11  H30 SPM     1      -2.751  63.168  76.263  1.00  0.00     0.274 HD
ATOM     12  H29 SPM     1      -2.833  64.740  75.865  1.00  0.00     0.274 HD
ATOM     13  H28 SPM     1      -2.406  63.649  74.740  1.00  0.00     0.274 HD
ENDBRANCH   9  10
ENDBRANCH   8   9
ENDBRANCH   7   8
ENDBRANCH   4   7
ENDBRANCH   3   4
ENDBRANCH   2   3
ENDBRANCH   1   2
BRANCH   1  14
ATOM     14  C4  SPM     1       1.475  60.622  73.776  1.00  0.00     0.232 C 
BRANCH  14  15
ATOM     15  N2  SPM     1       1.828  59.162  73.994  1.00  0.00    -0.075 N 
ATOM     16  H11 SPM     1       1.349  58.826  74.819  1.00  0.00     0.277 HD
ATOM     17  H10 SPM     1       2.814  59.088  74.200  1.00  0.00     0.277 HD
BRANCH  15  18
ATOM     18  C3  SPM     1       1.493  58.264  72.821  1.00  0.00     0.233 C 
BRANCH  18  19
ATOM     19  C2  SPM     1       0.557  57.113  73.228  1.00  0.00     0.055 C 
BRANCH  19  20
ATOM     20  C1  SPM     1       1.329  56.084  74.069  1.00  0.00     0.231 C 
BRANCH  20  21
ATOM     21  N1  SPM     1       1.372  54.734  73.402  1.00  0.00    -0.079 N 
ATOM     22  H3  SPM     1       2.031  54.099  73.836  1.00  0.00     0.274 HD
ATOM     23  H2  SPM     1       0.470  54.272  73.385  1.00  0.00     0.274 HD
ATOM     24  H1  SPM     1       1.662  54.828  72.434  1.00  0.00     0.274 HD
ENDBRANCH  20  21
ENDBRANCH  19  20
ENDBRANCH  18  19
ENDBRANCH  15  18
ENDBRANCH  14  15
ENDBRANCH   1  14
TORSDOF 13
ENDMDL
MODEL 7
REMARK VINA RESULT:      -3.8      3.125      8.083
REMARK  13 active torsions:
REMARK  status: ('A' for Active; 'I' for Inactive)
REMARK    1  A    between atoms: N1_1  and  C1_5 
REMARK    2  A    between atoms: C1_5  and  C2_6 
REMARK    3  A    between atoms: C2_6  and  C3_7 
REMARK    4  A    between atoms: C3_7  and  N2_8 
REMARK    5  A    between atoms: N2_8  and  C4_11 
REMARK    6  A    between atoms: C4_11  and  C5_12 
REMARK    7  A    between atoms: C5_12  and  C6_13 
REMARK    8  A    between atoms: C6_13  and  C7_14 
REMARK    9  A    between atoms: C7_14  and  N3_15 
REMARK   10  A    between atoms: N3_15  and  C8_18 
REMARK   11  A    between atoms: C8_18  and  C9_19 
REMARK   12  A    between atoms: C9_19  and  C10_20 
REMARK   13  A    between atoms: C10_20  and  N4_21 
ROOT
ATOM      1  C5  SPM     1       0.502  62.339  72.110  1.00  0.00     0.029 C 
ENDROOT
BRANCH   1   2
ATOM      2  C6  SPM     1       1.698  61.563  72.713  1.00  0.00     0.029 C 
BRANCH   2   3
ATOM      3  C7  SPM     1       1.361  61.025  74.113  1.00  0.00     0.232 C 
BRANCH   3   4
ATOM      4  N3  SPM     1       2.000  59.671  74.365  1.00  0.00    -0.075 N 
ATOM      5  H21 SPM     1       3.005  59.781  74.398  1.00  0.00     0.277 HD
ATOM      6  H20 SPM     1       1.730  59.344  75.283  1.00  0.00     0.277 HD
BRANCH   4   7
ATOM      7  C8  SPM     1       1.646  58.618  73.335  1.00  0.00     0.233 C 
BRANCH   7   8
ATOM      8  C9  SPM     1       0.229  58.061  73.546  1.00  0.00     0.055 C 
BRANCH   8   9
ATOM      9  C10 SPM     1       0.303  56.572  73.918  1.00  0.00     0.231 C 
BRANCH   9  10
ATOM     10  N4  SPM     1      -0.721  55.756  73.171  1.00  0.00    -0.079 N 
ATOM     11  H30 SPM     1      -0.406  55.474  72.250  1.00  0.00     0.274 HD
ATOM     12  H29 SPM     1      -0.926  54.899  73.677  1.00  0.00     0.274 HD
ATOM     13  H28 SPM     1      -1.604  56.238  73.057  1.00  0.00     0.274 HD
ENDBRANCH   9  10
ENDBRANCH   8   9
ENDBRANCH   7   8
ENDBRANCH   4   7
ENDBRANCH   3   4
ENDBRANCH   2   3
ENDBRANCH   1   2
BRANCH   1  14
ATOM     14  C4  SPM     1      -0.287  63.079  73.201  1.00  0.00     0.232 C 
BRANCH  14  15
ATOM     15  N2  SPM     1      -0.580  64.516  72.808  1.00  0.00    -0.075 N 
ATOM     16  H11 SPM     1      -1.441  64.544  72.279  1.00  0.00     0.277 HD
ATOM     17  H10 SPM     1       0.141  64.839  72.177  1.00  0.00     0.277 HD
BRANCH  15  18
ATOM     18  C3  SPM     1      -0.682  65.468  73.981  1.00  0.00     0.233 C 
BRANCH  18  19
ATOM     19  C2  SPM     1      -0.055  64.878  75.256  1.00  0.00     0.055 C 
BRANCH  19  20
ATOM     20  C1  SPM     1      -1.073  64.923  76.406  1.00  0.00     0.231 C 
BRANCH  20  21
ATOM     21  N1  SPM     1      -2.492  64.890  75.901  1.00  0.00    -0.079 N 
ATOM     22  H3  SPM     1      -2.576  65.195  74.939  1.00  0.00     0.274 HD
ATOM     23  H2  SPM     1      -2.915  63.972  75.968  1.00  0.00     0.274 HD
ATOM     24  H1  SPM     1      -3.076  65.514  76.449  1.00  0.00     0.274 HD
ENDBRANCH  20  21
ENDBRANCH  19  20
ENDBRANCH  18  19
ENDBRANCH  15  18
ENDBRANCH  14  15
ENDBRANCH   1  14
TORSDOF 13
ENDMDL
MODEL 8
REMARK VINA RESULT:      -3.7      2.012      2.189
REMARK  13 active torsions:
REMARK  status: ('A' for Active; 'I' for Inactive)
REMARK    1  A    between atoms: N1_1  and  C1_5 
REMARK    2  A    between atoms: C1_5  and  C2_6 
REMARK    3  A    between atoms: C2_6  and  C3_7 
REMARK    4  A    between atoms: C3_7  and  N2_8 
REMARK    5  A    between atoms: N2_8  and  C4_11 
REMARK    6  A    between atoms: C4_11  and  C5_12 
REMARK    7  A    between atoms: C5_12  and  C6_13 
REMARK    8  A    between atoms: C6_13  and  C7_14 
REMARK    9  A    between atoms: C7_14  and  N3_15 
REMARK   10  A    between atoms: N3_15  and  C8_18 
REMARK   11  A    between atoms: C8_18  and  C9_19 
REMARK   12  A    between atoms: C9_19  and  C10_20 
REMARK   13  A    between atoms: C10_20  and  N4_21 
ROOT
ATOM      1  C5  SPM     1      -0.070  58.015  74.744  1.00  0.00     0.029 C 
ENDROOT
BRANCH   1   2
ATOM      2  C6  SPM     1      -0.624  59.188  73.901  1.00  0.00     0.029 C 
BRANCH   2   3
ATOM      3  C7  SPM     1       0.442  59.731  72.937  1.00  0.00     0.232 C 
BRANCH   3   4
ATOM      4  N3  SPM     1       0.497  61.248  72.954  1.00  0.00    -0.075 N 
ATOM      5  H21 SPM     1       1.231  61.545  73.583  1.00  0.00     0.277 HD
ATOM      6  H20 SPM     1       0.771  61.579  72.038  1.00  0.00     0.277 HD
BRANCH   4   7
ATOM      7  C8  SPM     1      -0.804  61.911  73.356  1.00  0.00     0.233 C 
BRANCH   7   8
ATOM      8  C9  SPM     1      -0.572  63.276  74.023  1.00  0.00     0.055 C 
BRANCH   8   9
ATOM      9  C10 SPM     1      -0.637  64.391  72.969  1.00  0.00     0.231 C 
BRANCH   9  10
ATOM     10  N4  SPM     1      -1.401  65.591  73.467  1.00  0.00    -0.079 N 
ATOM     11  H30 SPM     1      -1.486  66.322  72.771  1.00  0.00     0.274 HD
ATOM     12  H29 SPM     1      -2.349  65.325  73.718  1.00  0.00     0.274 HD
ATOM     13  H28 SPM     1      -0.992  66.004  74.296  1.00  0.00     0.274 HD
ENDBRANCH   9  10
ENDBRANCH   8   9
ENDBRANCH   7   8
ENDBRANCH   4   7
ENDBRANCH   3   4
ENDBRANCH   2   3
ENDBRANCH   1   2
BRANCH   1  14
ATOM     14  C4  SPM     1       1.400  57.728  74.398  1.00  0.00     0.232 C 
BRANCH  14  15
ATOM     15  N2  SPM     1       1.602  56.292  73.948  1.00  0.00    -0.075 N 
ATOM     16  H11 SPM     1       2.563  56.026  74.115  1.00  0.00     0.277 HD
ATOM     17  H10 SPM     1       1.472  56.238  72.947  1.00  0.00     0.277 HD
BRANCH  15  18
ATOM     18  C3  SPM     1       0.684  55.297  74.627  1.00  0.00     0.233 C 
BRANCH  18  19
ATOM     19  C2  SPM     1       0.065  54.310  73.623  1.00  0.00     0.055 C 
BRANCH  19  20
ATOM     20  C1  SPM     1      -0.401  53.042  74.356  1.00  0.00     0.231 C 
BRANCH  20  21
ATOM     21  N1  SPM     1      -1.718  52.538  73.823  1.00  0.00    -0.079 N 
ATOM     22  H3  SPM     1      -2.427  53.260  73.776  1.00  0.00     0.274 HD
ATOM     23  H2  SPM     1      -1.639  52.127  72.901  1.00  0.00     0.274 HD
ATOM     24  H1  SPM     1      -2.089  51.813  74.428  1.00  0.00     0.274 HD
ENDBRANCH  20  21
ENDBRANCH  19  20
ENDBRANCH  18  19
ENDBRANCH  15  18
ENDBRANCH  14  15
ENDBRANCH   1  14
TORSDOF 13
ENDMDL
MODEL 9
REMARK VINA RESULT:      -3.7      2.304      7.279
REMARK  13 active torsions:
REMARK  status: ('A' for Active; 'I' for Inactive)
REMARK    1  A    between atoms: N1_1  and  C1_5 
REMARK    2  A    between atoms: C1_5  and  C2_6 
REMARK    3  A    between atoms: C2_6  and  C3_7 
REMARK    4  A    between atoms: C3_7  and  N2_8 
REMARK    5  A    between atoms: N2_8  and  C4_11 
REMARK    6  A    between atoms: C4_11  and  C5_12 
REMARK    7  A    between atoms: C5_12  and  C6_13 
REMARK    8  A    between atoms: C6_13  and  C7_14 
REMARK    9  A    between atoms: C7_14  and  N3_15 
REMARK   10  A    between atoms: N3_15  and  C8_18 
REMARK   11  A    between atoms: C8_18  and  C9_19 
REMARK   12  A    between atoms: C9_19  and  C10_20 
REMARK   13  A    between atoms: C10_20  and  N4_21 
ROOT
ATOM      1  C5  SPM     1       1.051  59.526  72.944  1.00  0.00     0.029 C 
ENDROOT
BRANCH   1   2
ATOM      2  C6  SPM     1       1.957  58.659  72.039  1.00  0.00     0.029 C 
BRANCH   2   3
ATOM      3  C7  SPM     1       1.679  57.162  72.245  1.00  0.00     0.232 C 
BRANCH   3   4
ATOM      4  N3  SPM     1       1.976  56.724  73.668  1.00  0.00    -0.075 N 
ATOM      5  H21 SPM     1       2.969  56.557  73.762  1.00  0.00     0.277 HD
ATOM      6  H20 SPM     1       1.766  57.487  74.298  1.00  0.00     0.277 HD
BRANCH   4   7
ATOM      7  C8  SPM     1       1.217  55.490  74.107  1.00  0.00     0.233 C 
BRANCH   7   8
ATOM      8  C9  SPM     1      -0.170  55.404  73.451  1.00  0.00     0.055 C 
BRANCH   8   9
ATOM      9  C10 SPM     1      -1.251  55.835  74.454  1.00  0.00     0.231 C 
BRANCH   9  10
ATOM     10  N4  SPM     1      -2.196  54.707  74.781  1.00  0.00    -0.079 N 
ATOM     11  H30 SPM     1      -2.667  54.337  73.964  1.00  0.00     0.274 HD
ATOM     12  H29 SPM     1      -1.688  53.930  75.194  1.00  0.00     0.274 HD
ATOM     13  H28 SPM     1      -2.908  54.969  75.451  1.00  0.00     0.274 HD
ENDBRANCH   9  10
ENDBRANCH   8   9
ENDBRANCH   7   8
ENDBRANCH   4   7
ENDBRANCH   3   4
ENDBRANCH   2   3
ENDBRANCH   1   2
BRANCH   1  14
ATOM     14  C4  SPM     1       1.659  60.920  73.167  1.00  0.00     0.232 C 
BRANCH  14  15
ATOM     15  N2  SPM     1       1.103  61.940  72.189  1.00  0.00    -0.075 N 
ATOM     16  H11 SPM     1       0.591  61.457  71.464  1.00  0.00     0.277 HD
ATOM     17  H10 SPM     1       1.871  62.401  71.721  1.00  0.00     0.277 HD
BRANCH  15  18
ATOM     18  C3  SPM     1       0.207  62.981  72.826  1.00  0.00     0.233 C 
BRANCH  18  19
ATOM     19  C2  SPM     1      -1.247  62.493  72.944  1.00  0.00     0.055 C 
BRANCH  19  20
ATOM     20  C1  SPM     1      -1.623  62.327  74.425  1.00  0.00     0.231 C 
BRANCH  20  21
ATOM     21  N1  SPM     1      -3.044  61.853  74.592  1.00  0.00    -0.079 N 
ATOM     22  H3  SPM     1      -3.375  61.309  73.804  1.00  0.00     0.274 HD
ATOM     23  H2  SPM     1      -3.178  61.294  75.426  1.00  0.00     0.274 HD
ATOM     24  H1  SPM     1      -3.672  62.645  74.676  1.00  0.00     0.274 HD
ENDBRANCH  20  21
ENDBRANCH  19  20
ENDBRANCH  18  19
ENDBRANCH  15  18
ENDBRANCH  14  15
ENDBRANCH   1  14
TORSDOF 13
ENDMDL
