MODEL 1
REMARK VINA RESULT:      -5.4      0.000      0.000
REMARK  13 active torsions:
REMARK  status: ('A' for Active; 'I' for Inactive)
REMARK    1  A    between atoms: N1_1  and  C1_5 
REMARK    2  A    between atoms: C1_5  and  C2_6 
REMARK    3  A    between atoms: C2_6  and  C3_7 
REMARK    4  A    between atoms: C3_7  and  N2_8 
REMARK    5  A    between atoms: N2_8  and  C4_11 
REMARK    6  A    between atoms: C4_11  and  C5_12 
REMARK    7  A    between atoms: C5_12  and  C6_13 
REMARK    8  A    between atoms: C6_13  and  C7_14 
REMARK    9  A    between atoms: C7_14  and  N3_15 
REMARK   10  A    between atoms: N3_15  and  C8_18 
REMARK   11  A    between atoms: C8_18  and  C9_19 
REMARK   12  A    between atoms: C9_19  and  C10_20 
REMARK   13  A    between atoms: C10_20  and  N4_21 
ROOT
ATOM      1  C5  SPM     1       3.802  67.252  65.744  1.00  0.00     0.029 C 
ENDROOT
BRANCH   1   2
ATOM      2  C6  SPM     1       4.742  68.380  65.255  1.00  0.00     0.029 C 
BRANCH   2   3
ATOM      3  C7  SPM     1       5.823  67.833  64.310  1.00  0.00     0.232 C 
BRANCH   3   4
ATOM      4  N3  SPM     1       6.345  68.904  63.370  1.00  0.00    -0.075 N 
ATOM      5  H21 SPM     1       6.028  69.809  63.692  1.00  0.00     0.277 HD
ATOM      6  H20 SPM     1       7.354  68.931  63.428  1.00  0.00     0.277 HD
BRANCH   4   7
ATOM      7  C8  SPM     1       5.932  68.715  61.925  1.00  0.00     0.233 C 
BRANCH   7   8
ATOM      8  C9  SPM     1       4.788  67.699  61.782  1.00  0.00     0.055 C 
BRANCH   8   9
ATOM      9  C10 SPM     1       3.678  68.283  60.896  1.00  0.00     0.231 C 
BRANCH   9  10
ATOM     10  N4  SPM     1       4.238  69.014  59.703  1.00  0.00    -0.079 N 
ATOM     11  H30 SPM     1       5.036  69.593  59.934  1.00  0.00     0.274 HD
ATOM     12  H29 SPM     1       4.559  68.352  59.002  1.00  0.00     0.274 HD
ATOM     13  H28 SPM     1       3.554  69.605  59.245  1.00  0.00     0.274 HD
ENDBRANCH   9  10
ENDBRANCH   8   9
ENDBRANCH   7   8
ENDBRANCH   4   7
ENDBRANCH   3   4
ENDBRANCH   2   3
ENDBRANCH   1   2
BRANCH   1  14
ATOM     14  C4  SPM     1       2.351  67.746  65.854  1.00  0.00     0.232 C 
BRANCH  14  15
ATOM     15  N2  SPM     1       1.846  67.696  67.284  1.00  0.00    -0.075 N 
ATOM     16  H11 SPM     1       2.546  68.093  67.896  1.00  0.00     0.277 HD
ATOM     17  H10 SPM     1       1.751  66.730  67.567  1.00  0.00     0.277 HD
BRANCH  15  18
ATOM     18  C3  SPM     1       0.529  68.412  67.500  1.00  0.00     0.233 C 
BRANCH  18  19
ATOM     19  C2  SPM     1      -0.482  68.101  66.383  1.00  0.00     0.055 C 
BRANCH  19  20
ATOM     20  C1  SPM     1      -1.772  67.529  66.992  1.00  0.00     0.231 C 
BRANCH  20  21
ATOM     21  N1  SPM     1      -3.003  68.155  66.388  1.00  0.00    -0.079 N 
ATOM     22  H3  SPM     1      -3.179  67.846  65.440  1.00  0.00     0.274 HD
ATOM     23  H2  SPM     1      -3.842  67.978  66.927  1.00  0.00     0.274 HD
ATOM     24  H1  SPM     1      -2.900  69.164  66.344  1.00  0.00     0.274 HD
ENDBRANCH  20  21
ENDBRANCH  19  20
ENDBRANCH  18  19
ENDBRANCH  15  18
ENDBRANCH  14  15
ENDBRANCH   1  14
TORSDOF 13
ENDMDL
MODEL 2
REMARK VINA RESULT:      -5.2      3.698      4.688
REMARK  13 active torsions:
REMARK  status: ('A' for Active; 'I' for Inactive)
REMARK    1  A    between atoms: N1_1  and  C1_5 
REMARK    2  A    between atoms: C1_5  and  C2_6 
REMARK    3  A    between atoms: C2_6  and  C3_7 
REMARK    4  A    between atoms: C3_7  and  N2_8 
REMARK    5  A    between atoms: N2_8  and  C4_11 
REMARK    6  A    between atoms: C4_11  and  C5_12 
REMARK    7  A    between atoms: C5_12  and  C6_13 
REMARK    8  A    between atoms: C6_13  and  C7_14 
REMARK    9  A    between atoms: C7_14  and  N3_15 
REMARK   10  A    between atoms: N3_15  and  C8_18 
REMARK   11  A    between atoms: C8_18  and  C9_19 
REMARK   12  A    between atoms: C9_19  and  C10_20 
REMARK   13  A    between atoms: C10_20  and  N4_21 
ROOT
ATOM      1  C5  SPM     1       3.458  64.291  64.699  1.00  0.00     0.029 C 
ENDROOT
BRANCH   1   2
ATOM      2  C6  SPM     1       4.567  64.224  63.621  1.00  0.00     0.029 C 
BRANCH   2   3
ATOM      3  C7  SPM     1       4.711  65.567  62.888  1.00  0.00     0.232 C 
BRANCH   3   4
ATOM      4  N3  SPM     1       3.590  66.527  63.244  1.00  0.00    -0.075 N 
ATOM      5  H21 SPM     1       2.834  66.411  62.582  1.00  0.00     0.277 HD
ATOM      6  H20 SPM     1       3.207  66.268  64.144  1.00  0.00     0.277 HD
BRANCH   4   7
ATOM      7  C8  SPM     1       4.007  67.982  63.278  1.00  0.00     0.233 C 
BRANCH   7   8
ATOM      8  C9  SPM     1       4.742  68.340  64.580  1.00  0.00     0.055 C 
BRANCH   8   9
ATOM      9  C10 SPM     1       6.211  68.671  64.277  1.00  0.00     0.231 C 
BRANCH   9  10
ATOM     10  N4  SPM     1       6.897  69.312  65.456  1.00  0.00    -0.079 N 
ATOM     11  H30 SPM     1       6.496  70.207  65.707  1.00  0.00     0.274 HD
ATOM     12  H29 SPM     1       6.812  68.720  66.278  1.00  0.00     0.274 HD
ATOM     13  H28 SPM     1       7.889  69.452  65.308  1.00  0.00     0.274 HD
ENDBRANCH   9  10
ENDBRANCH   8   9
ENDBRANCH   7   8
ENDBRANCH   4   7
ENDBRANCH   3   4
ENDBRANCH   2   3
ENDBRANCH   1   2
BRANCH   1  14
ATOM     14  C4  SPM     1       4.052  64.569  66.089  1.00  0.00     0.232 C 
BRANCH  14  15
ATOM     15  N2  SPM     1       3.581  63.554  67.115  1.00  0.00    -0.075 N 
ATOM     16  H11 SPM     1       4.105  62.698  66.998  1.00  0.00     0.277 HD
ATOM     17  H10 SPM     1       2.618  63.315  66.925  1.00  0.00     0.277 HD
BRANCH  15  18
ATOM     18  C3  SPM     1       3.705  64.024  68.549  1.00  0.00     0.233 C 
BRANCH  18  19
ATOM     19  C2  SPM     1       2.909  63.131  69.517  1.00  0.00     0.055 C 
BRANCH  19  20
ATOM     20  C1  SPM     1       1.661  63.879  70.011  1.00  0.00     0.231 C 
BRANCH  20  21
ATOM     21  N1  SPM     1       1.638  65.308  69.533  1.00  0.00    -0.079 N 
ATOM     22  H3  SPM     1       1.594  65.386  68.524  1.00  0.00     0.274 HD
ATOM     23  H2  SPM     1       0.865  65.840  69.914  1.00  0.00     0.274 HD
ATOM     24  H1  SPM     1       2.484  65.789  69.820  1.00  0.00     0.274 HD
ENDBRANCH  20  21
ENDBRANCH  19  20
ENDBRANCH  18  19
ENDBRANCH  15  18
ENDBRANCH  14  15
ENDBRANCH   1  14
TORSDOF 13
ENDMDL
MODEL 3
REMARK VINA RESULT:      -5.2      3.631      4.127
REMARK  13 active torsions:
REMARK  status: ('A' for Active; 'I' for Inactive)
REMARK    1  A    between atoms: N1_1  and  C1_5 
REMARK    2  A    between atoms: C1_5  and  C2_6 
REMARK    3  A    between atoms: C2_6  and  C3_7 
REMARK    4  A    between atoms: C3_7  and  N2_8 
REMARK    5  A    between atoms: N2_8  and  C4_11 
REMARK    6  A    between atoms: C4_11  and  C5_12 
REMARK    7  A    between atoms: C5_12  and  C6_13 
REMARK    8  A    between atoms: C6_13  and  C7_14 
REMARK    9  A    between atoms: C7_14  and  N3_15 
REMARK   10  A    between atoms: N3_15  and  C8_18 
REMARK   11  A    between atoms: C8_18  and  C9_19 
REMARK   12  A    between atoms: C9_19  and  C10_20 
REMARK   13  A    between atoms: C10_20  and  N4_21 
ROOT
ATOM      1  C5  SPM     1       3.399  64.362  64.591  1.00  0.00     0.029 C 
ENDROOT
BRANCH   1   2
ATOM      2  C6  SPM     1       4.545  64.165  63.570  1.00  0.00     0.029 C 
BRANCH   2   3
ATOM      3  C7  SPM     1       4.987  65.507  62.965  1.00  0.00     0.232 C 
BRANCH   3   4
ATOM      4  N3  SPM     1       3.947  66.592  63.179  1.00  0.00    -0.075 N 
ATOM      5  H21 SPM     1       3.228  66.504  62.473  1.00  0.00     0.277 HD
ATOM      6  H20 SPM     1       3.482  66.434  64.063  1.00  0.00     0.277 HD
BRANCH   4   7
ATOM      7  C8  SPM     1       4.505  67.999  63.152  1.00  0.00     0.233 C 
BRANCH   7   8
ATOM      8  C9  SPM     1       4.963  68.409  61.743  1.00  0.00     0.055 C 
BRANCH   8   9
ATOM      9  C10 SPM     1       3.775  68.351  60.770  1.00  0.00     0.231 C 
BRANCH   9  10
ATOM     10  N4  SPM     1       4.110  68.971  59.438  1.00  0.00    -0.079 N 
ATOM     11  H30 SPM     1       5.093  69.200  59.345  1.00  0.00     0.274 HD
ATOM     12  H29 SPM     1       3.895  68.325  58.684  1.00  0.00     0.274 HD
ATOM     13  H28 SPM     1       3.581  69.814  59.250  1.00  0.00     0.274 HD
ENDBRANCH   9  10
ENDBRANCH   8   9
ENDBRANCH   7   8
ENDBRANCH   4   7
ENDBRANCH   3   4
ENDBRANCH   2   3
ENDBRANCH   1   2
BRANCH   1  14
ATOM     14  C4  SPM     1       3.949  64.537  66.015  1.00  0.00     0.232 C 
BRANCH  14  15
ATOM     15  N2  SPM     1       3.468  63.436  66.944  1.00  0.00    -0.075 N 
ATOM     16  H11 SPM     1       3.977  62.587  66.739  1.00  0.00     0.277 HD
ATOM     17  H10 SPM     1       2.500  63.232  66.740  1.00  0.00     0.277 HD
BRANCH  15  18
ATOM     18  C3  SPM     1       3.611  63.763  68.415  1.00  0.00     0.233 C 
BRANCH  18  19
ATOM     19  C2  SPM     1       2.610  62.975  69.278  1.00  0.00     0.055 C 
BRANCH  19  20
ATOM     20  C1  SPM     1       1.687  63.949  70.027  1.00  0.00     0.231 C 
BRANCH  20  21
ATOM     21  N1  SPM     1       1.783  65.349  69.476  1.00  0.00    -0.079 N 
ATOM     22  H3  SPM     1       2.072  65.372  68.505  1.00  0.00     0.274 HD
ATOM     23  H2  SPM     1       0.913  65.862  69.547  1.00  0.00     0.274 HD
ATOM     24  H1  SPM     1       2.473  65.884  69.992  1.00  0.00     0.274 HD
ENDBRANCH  20  21
ENDBRANCH  19  20
ENDBRANCH  18  19
ENDBRANCH  15  18
ENDBRANCH  14  15
ENDBRANCH   1  14
TORSDOF 13
ENDMDL
MODEL 4
REMARK VINA RESULT:      -5.2      2.277      6.186
REMARK  13 active torsions:
REMARK  status: ('A' for Active; 'I' for Inactive)
REMARK    1  A    between atoms: N1_1  and  C1_5 
REMARK    2  A    between atoms: C1_5  and  C2_6 
REMARK    3  A    between atoms: C2_6  and  C3_7 
REMARK    4  A    between atoms: C3_7  and  N2_8 
REMARK    5  A    between atoms: N2_8  and  C4_11 
REMARK    6  A    between atoms: C4_11  and  C5_12 
REMARK    7  A    between atoms: C5_12  and  C6_13 
REMARK    8  A    between atoms: C6_13  and  C7_14 
REMARK    9  A    between atoms: C7_14  and  N3_15 
REMARK   10  A    between atoms: N3_15  and  C8_18 
REMARK   11  A    between atoms: C8_18  and  C9_19 
REMARK   12  A    between atoms: C9_19  and  C10_20 
REMARK   13  A    between atoms: C10_20  and  N4_21 
ROOT
ATOM      1  C5  SPM     1       4.793  68.221  64.661  1.00  0.00     0.029 C 
ENDROOT
BRANCH   1   2
ATOM      2  C6  SPM     1       3.478  68.167  65.475  1.00  0.00     0.029 C 
BRANCH   2   3
ATOM      3  C7  SPM     1       2.295  67.743  64.591  1.00  0.00     0.232 C 
BRANCH   3   4
ATOM      4  N3  SPM     1       1.067  67.404  65.417  1.00  0.00    -0.075 N 
ATOM      5  H21 SPM     1       0.239  67.684  64.908  1.00  0.00     0.277 HD
ATOM      6  H20 SPM     1       1.001  66.399  65.515  1.00  0.00     0.277 HD
BRANCH   4   7
ATOM      7  C8  SPM     1       1.049  68.042  66.791  1.00  0.00     0.233 C 
BRANCH   7   8
ATOM      8  C9  SPM     1      -0.345  68.573  67.160  1.00  0.00     0.055 C 
BRANCH   8   9
ATOM      9  C10 SPM     1      -1.360  68.173  66.078  1.00  0.00     0.231 C 
BRANCH   9  10
ATOM     10  N4  SPM     1      -2.699  67.813  66.671  1.00  0.00    -0.079 N 
ATOM     11  H30 SPM     1      -2.656  67.010  67.286  1.00  0.00     0.274 HD
ATOM     12  H29 SPM     1      -3.055  68.583  67.230  1.00  0.00     0.274 HD
ATOM     13  H28 SPM     1      -3.403  67.622  65.968  1.00  0.00     0.274 HD
ENDBRANCH   9  10
ENDBRANCH   8   9
ENDBRANCH   7   8
ENDBRANCH   4   7
ENDBRANCH   3   4
ENDBRANCH   2   3
ENDBRANCH   1   2
BRANCH   1  14
ATOM     14  C4  SPM     1       4.737  67.275  63.452  1.00  0.00     0.232 C 
BRANCH  14  15
ATOM     15  N2  SPM     1       5.253  65.889  63.797  1.00  0.00    -0.075 N 
ATOM     16  H11 SPM     1       5.296  65.794  64.803  1.00  0.00     0.277 HD
ATOM     17  H10 SPM     1       6.206  65.801  63.472  1.00  0.00     0.277 HD
BRANCH  15  18
ATOM     18  C3  SPM     1       4.422  64.761  63.223  1.00  0.00     0.233 C 
BRANCH  18  19
ATOM     19  C2  SPM     1       3.620  64.027  64.312  1.00  0.00     0.055 C 
BRANCH  19  20
ATOM     20  C1  SPM     1       4.045  64.529  65.701  1.00  0.00     0.231 C 
BRANCH  20  21
ATOM     21  N1  SPM     1       3.470  63.678  66.804  1.00  0.00    -0.079 N 
ATOM     22  H3  SPM     1       4.110  63.549  67.578  1.00  0.00     0.274 HD
ATOM     23  H2  SPM     1       2.607  64.051  67.181  1.00  0.00     0.274 HD
ATOM     24  H1  SPM     1       3.252  62.750  66.457  1.00  0.00     0.274 HD
ENDBRANCH  20  21
ENDBRANCH  19  20
ENDBRANCH  18  19
ENDBRANCH  15  18
ENDBRANCH  14  15
ENDBRANCH   1  14
TORSDOF 13
ENDMDL
MODEL 5
REMARK VINA RESULT:      -5.2      2.002      6.178
REMARK  13 active torsions:
REMARK  status: ('A' for Active; 'I' for Inactive)
REMARK    1  A    between atoms: N1_1  and  C1_5 
REMARK    2  A    between atoms: C1_5  and  C2_6 
REMARK    3  A    between atoms: C2_6  and  C3_7 
REMARK    4  A    between atoms: C3_7  and  N2_8 
REMARK    5  A    between atoms: N2_8  and  C4_11 
REMARK    6  A    between atoms: C4_11  and  C5_12 
REMARK    7  A    between atoms: C5_12  and  C6_13 
REMARK    8  A    between atoms: C6_13  and  C7_14 
REMARK    9  A    between atoms: C7_14  and  N3_15 
REMARK   10  A    between atoms: N3_15  and  C8_18 
REMARK   11  A    between atoms: C8_18  and  C9_19 
REMARK   12  A    between atoms: C9_19  and  C10_20 
REMARK   13  A    between atoms: C10_20  and  N4_21 
ROOT
ATOM      1  C5  SPM     1       4.077  64.391  64.541  1.00  0.00     0.029 C 
ENDROOT
BRANCH   1   2
ATOM      2  C6  SPM     1       4.005  65.290  65.799  1.00  0.00     0.029 C 
BRANCH   2   3
ATOM      3  C7  SPM     1       3.113  66.517  65.555  1.00  0.00     0.232 C 
BRANCH   3   4
ATOM      4  N3  SPM     1       2.824  67.270  66.841  1.00  0.00    -0.075 N 
ATOM      5  H21 SPM     1       2.856  66.622  67.617  1.00  0.00     0.277 HD
ATOM      6  H20 SPM     1       3.569  67.934  67.009  1.00  0.00     0.277 HD
BRANCH   4   7
ATOM      7  C8  SPM     1       1.495  67.995  66.849  1.00  0.00     0.233 C 
BRANCH   7   8
ATOM      8  C9  SPM     1       0.793  67.925  65.484  1.00  0.00     0.055 C 
BRANCH   8   9
ATOM      9  C10 SPM     1      -0.715  67.706  65.682  1.00  0.00     0.231 C 
BRANCH   9  10
ATOM     10  N4  SPM     1      -1.432  68.993  66.003  1.00  0.00    -0.079 N 
ATOM     11  H30 SPM     1      -2.439  68.910  65.939  1.00  0.00     0.274 HD
ATOM     12  H29 SPM     1      -1.228  69.281  66.956  1.00  0.00     0.274 HD
ATOM     13  H28 SPM     1      -1.150  69.761  65.406  1.00  0.00     0.274 HD
ENDBRANCH   9  10
ENDBRANCH   8   9
ENDBRANCH   7   8
ENDBRANCH   4   7
ENDBRANCH   3   4
ENDBRANCH   2   3
ENDBRANCH   1   2
BRANCH   1  14
ATOM     14  C4  SPM     1       5.210  64.837  63.604  1.00  0.00     0.232 C 
BRANCH  14  15
ATOM     15  N2  SPM     1       4.674  65.397  62.299  1.00  0.00    -0.075 N 
ATOM     16  H11 SPM     1       3.666  65.330  62.300  1.00  0.00     0.277 HD
ATOM     17  H10 SPM     1       4.987  64.812  61.536  1.00  0.00     0.277 HD
BRANCH  15  18
ATOM     18  C3  SPM     1       5.079  66.830  62.029  1.00  0.00     0.233 C 
BRANCH  18  19
ATOM     19  C2  SPM     1       3.867  67.777  62.017  1.00  0.00     0.055 C 
BRANCH  19  20
ATOM     20  C1  SPM     1       3.738  68.444  60.638  1.00  0.00     0.231 C 
BRANCH  20  21
ATOM     21  N1  SPM     1       2.322  68.869  60.351  1.00  0.00    -0.079 N 
ATOM     22  H3  SPM     1       2.130  68.964  59.361  1.00  0.00     0.274 HD
ATOM     23  H2  SPM     1       1.632  68.234  60.736  1.00  0.00     0.274 HD
ATOM     24  H1  SPM     1       2.136  69.777  60.765  1.00  0.00     0.274 HD
ENDBRANCH  20  21
ENDBRANCH  19  20
ENDBRANCH  18  19
ENDBRANCH  15  18
ENDBRANCH  14  15
ENDBRANCH   1  14
TORSDOF 13
ENDMDL
MODEL 6
REMARK VINA RESULT:      -5.2      1.338      1.989
REMARK  13 active torsions:
REMARK  status: ('A' for Active; 'I' for Inactive)
REMARK    1  A    between atoms: N1_1  and  C1_5 
REMARK    2  A    between atoms: C1_5  and  C2_6 
REMARK    3  A    between atoms: C2_6  and  C3_7 
REMARK    4  A    between atoms: C3_7  and  N2_8 
REMARK    5  A    between atoms: N2_8  and  C4_11 
REMARK    6  A    between atoms: C4_11  and  C5_12 
REMARK    7  A    between atoms: C5_12  and  C6_13 
REMARK    8  A    between atoms: C6_13  and  C7_14 
REMARK    9  A    between atoms: C7_14  and  N3_15 
REMARK   10  A    between atoms: N3_15  and  C8_18 
REMARK   11  A    between atoms: C8_18  and  C9_19 
REMARK   12  A    between atoms: C9_19  and  C10_20 
REMARK   13  A    between atoms: C10_20  and  N4_21 
ROOT
ATOM      1  C5  SPM     1       2.883  66.620  64.976  1.00  0.00     0.029 C 
ENDROOT
BRANCH   1   2
ATOM      2  C6  SPM     1       4.024  67.539  65.475  1.00  0.00     0.029 C 
BRANCH   2   3
ATOM      3  C7  SPM     1       5.252  67.450  64.555  1.00  0.00     0.232 C 
BRANCH   3   4
ATOM      4  N3  SPM     1       5.408  68.696  63.703  1.00  0.00    -0.075 N 
ATOM      5  H21 SPM     1       4.586  69.275  63.809  1.00  0.00     0.277 HD
ATOM      6  H20 SPM     1       6.178  69.246  64.061  1.00  0.00     0.277 HD
BRANCH   4   7
ATOM      7  C8  SPM     1       5.636  68.416  62.232  1.00  0.00     0.233 C 
BRANCH   7   8
ATOM      8  C9  SPM     1       4.532  67.525  61.639  1.00  0.00     0.055 C 
BRANCH   8   9
ATOM      9  C10 SPM     1       3.486  68.395  60.925  1.00  0.00     0.231 C 
BRANCH   9  10
ATOM     10  N4  SPM     1       3.959  68.839  59.565  1.00  0.00    -0.079 N 
ATOM     11  H30 SPM     1       4.613  69.611  59.606  1.00  0.00     0.274 HD
ATOM     12  H29 SPM     1       4.443  68.079  59.095  1.00  0.00     0.274 HD
ATOM     13  H28 SPM     1       3.199  69.114  58.953  1.00  0.00     0.274 HD
ENDBRANCH   9  10
ENDBRANCH   8   9
ENDBRANCH   7   8
ENDBRANCH   4   7
ENDBRANCH   3   4
ENDBRANCH   2   3
ENDBRANCH   1   2
BRANCH   1  14
ATOM     14  C4  SPM     1       1.756  67.436  64.325  1.00  0.00     0.232 C 
BRANCH  14  15
ATOM     15  N2  SPM     1       0.390  67.021  64.841  1.00  0.00    -0.075 N 
ATOM     16  H11 SPM     1       0.502  66.265  65.502  1.00  0.00     0.277 HD
ATOM     17  H10 SPM     1      -0.150  66.640  64.076  1.00  0.00     0.277 HD
BRANCH  15  18
ATOM     18  C3  SPM     1      -0.391  68.143  65.494  1.00  0.00     0.233 C 
BRANCH  18  19
ATOM     19  C2  SPM     1      -0.472  67.973  67.020  1.00  0.00     0.055 C 
BRANCH  19  20
ATOM     20  C1  SPM     1       0.832  68.461  67.671  1.00  0.00     0.231 C 
BRANCH  20  21
ATOM     21  N1  SPM     1       1.532  67.356  68.420  1.00  0.00    -0.079 N 
ATOM     22  H3  SPM     1       0.946  66.923  69.124  1.00  0.00     0.274 HD
ATOM     23  H2  SPM     1       1.873  66.621  67.812  1.00  0.00     0.274 HD
ATOM     24  H1  SPM     1       2.343  67.721  68.909  1.00  0.00     0.274 HD
ENDBRANCH  20  21
ENDBRANCH  19  20
ENDBRANCH  18  19
ENDBRANCH  15  18
ENDBRANCH  14  15
ENDBRANCH   1  14
TORSDOF 13
ENDMDL
MODEL 7
REMARK VINA RESULT:      -5.1      4.337      8.062
REMARK  13 active torsions:
REMARK  status: ('A' for Active; 'I' for Inactive)
REMARK    1  A    between atoms: N1_1  and  C1_5 
REMARK    2  A    between atoms: C1_5  and  C2_6 
REMARK    3  A    between atoms: C2_6  and  C3_7 
REMARK    4  A    between atoms: C3_7  and  N2_8 
REMARK    5  A    between atoms: N2_8  and  C4_11 
REMARK    6  A    between atoms: C4_11  and  C5_12 
REMARK    7  A    between atoms: C5_12  and  C6_13 
REMARK    8  A    between atoms: C6_13  and  C7_14 
REMARK    9  A    between atoms: C7_14  and  N3_15 
REMARK   10  A    between atoms: N3_15  and  C8_18 
REMARK   11  A    between atoms: C8_18  and  C9_19 
REMARK   12  A    between atoms: C9_19  and  C10_20 
REMARK   13  A    between atoms: C10_20  and  N4_21 
ROOT
ATOM      1  C5  SPM     1       3.853  64.030  64.287  1.00  0.00     0.029 C 
ENDROOT
BRANCH   1   2
ATOM      2  C6  SPM     1       4.031  64.666  65.686  1.00  0.00     0.029 C 
BRANCH   2   3
ATOM      3  C7  SPM     1       3.673  63.669  66.799  1.00  0.00     0.232 C 
BRANCH   3   4
ATOM      4  N3  SPM     1       3.412  64.369  68.120  1.00  0.00    -0.075 N 
ATOM      5  H21 SPM     1       4.219  64.929  68.362  1.00  0.00     0.277 HD
ATOM      6  H20 SPM     1       2.650  65.025  68.002  1.00  0.00     0.277 HD
BRANCH   4   7
ATOM      7  C8  SPM     1       3.092  63.432  69.266  1.00  0.00     0.233 C 
BRANCH   7   8
ATOM      8  C9  SPM     1       2.703  62.030  68.770  1.00  0.00     0.055 C 
BRANCH   8   9
ATOM      9  C10 SPM     1       3.408  60.961  69.618  1.00  0.00     0.231 C 
BRANCH   9  10
ATOM     10  N4  SPM     1       3.303  59.592  68.996  1.00  0.00    -0.079 N 
ATOM     11  H30 SPM     1       3.911  59.474  68.195  1.00  0.00     0.274 HD
ATOM     12  H29 SPM     1       3.574  58.878  69.667  1.00  0.00     0.274 HD
ATOM     13  H28 SPM     1       2.362  59.363  68.701  1.00  0.00     0.274 HD
ENDBRANCH   9  10
ENDBRANCH   8   9
ENDBRANCH   7   8
ENDBRANCH   4   7
ENDBRANCH   3   4
ENDBRANCH   2   3
ENDBRANCH   1   2
BRANCH   1  14
ATOM     14  C4  SPM     1       4.761  64.708  63.249  1.00  0.00     0.232 C 
BRANCH  14  15
ATOM     15  N2  SPM     1       4.236  66.076  62.850  1.00  0.00    -0.075 N 
ATOM     16  H11 SPM     1       4.195  66.666  63.671  1.00  0.00     0.277 HD
ATOM     17  H10 SPM     1       3.281  65.983  62.532  1.00  0.00     0.277 HD
BRANCH  15  18
ATOM     18  C3  SPM     1       5.055  66.765  61.780  1.00  0.00     0.233 C 
BRANCH  18  19
ATOM     19  C2  SPM     1       4.737  68.267  61.690  1.00  0.00     0.055 C 
BRANCH  19  20
ATOM     20  C1  SPM     1       3.550  68.494  60.741  1.00  0.00     0.231 C 
BRANCH  20  21
ATOM     21  N1  SPM     1       4.000  68.960  59.381  1.00  0.00    -0.079 N 
ATOM     22  H3  SPM     1       4.812  68.460  59.040  1.00  0.00     0.274 HD
ATOM     23  H2  SPM     1       3.276  68.882  58.677  1.00  0.00     0.274 HD
ATOM     24  H1  SPM     1       4.262  69.940  59.413  1.00  0.00     0.274 HD
ENDBRANCH  20  21
ENDBRANCH  19  20
ENDBRANCH  18  19
ENDBRANCH  15  18
ENDBRANCH  14  15
ENDBRANCH   1  14
TORSDOF 13
ENDMDL
MODEL 8
REMARK VINA RESULT:      -5.1      7.229     10.034
REMARK  13 active torsions:
REMARK  status: ('A' for Active; 'I' for Inactive)
REMARK    1  A    between atoms: N1_1  and  C1_5 
REMARK    2  A    between atoms: C1_5  and  C2_6 
REMARK    3  A    between atoms: C2_6  and  C3_7 
REMARK    4  A    between atoms: C3_7  and  N2_8 
REMARK    5  A    between atoms: N2_8  and  C4_11 
REMARK    6  A    between atoms: C4_11  and  C5_12 
REMARK    7  A    between atoms: C5_12  and  C6_13 
REMARK    8  A    between atoms: C6_13  and  C7_14 
REMARK    9  A    between atoms: C7_14  and  N3_15 
REMARK   10  A    between atoms: N3_15  and  C8_18 
REMARK   11  A    between atoms: C8_18  and  C9_19 
REMARK   12  A    between atoms: C9_19  and  C10_20 
REMARK   13  A    between atoms: C10_20  and  N4_21 
ROOT
ATOM      1  C5  SPM     1       0.190  63.750  71.514  1.00  0.00     0.029 C 
ENDROOT
BRANCH   1   2
ATOM      2  C6  SPM     1       0.435  62.470  72.349  1.00  0.00     0.029 C 
BRANCH   2   3
ATOM      3  C7  SPM     1       1.562  61.619  71.743  1.00  0.00     0.232 C 
BRANCH   3   4
ATOM      4  N3  SPM     1       2.344  60.876  72.811  1.00  0.00    -0.075 N 
ATOM      5  H21 SPM     1       2.862  61.544  73.366  1.00  0.00     0.277 HD
ATOM      6  H20 SPM     1       1.694  60.437  73.450  1.00  0.00     0.277 HD
BRANCH   4   7
ATOM      7  C8  SPM     1       3.295  59.831  72.268  1.00  0.00     0.233 C 
BRANCH   7   8
ATOM      8  C9  SPM     1       3.870  60.232  70.900  1.00  0.00     0.055 C 
BRANCH   8   9
ATOM      9  C10 SPM     1       3.505  59.172  69.849  1.00  0.00     0.231 C 
BRANCH   9  10
ATOM     10  N4  SPM     1       3.185  57.842  70.480  1.00  0.00    -0.079 N 
ATOM     11  H30 SPM     1       2.699  57.213  69.852  1.00  0.00     0.274 HD
ATOM     12  H29 SPM     1       4.039  57.367  70.756  1.00  0.00     0.274 HD
ATOM     13  H28 SPM     1       2.623  57.928  71.319  1.00  0.00     0.274 HD
ENDBRANCH   9  10
ENDBRANCH   8   9
ENDBRANCH   7   8
ENDBRANCH   4   7
ENDBRANCH   3   4
ENDBRANCH   2   3
ENDBRANCH   1   2
BRANCH   1  14
ATOM     14  C4  SPM     1       0.901  63.670  70.154  1.00  0.00     0.232 C 
BRANCH  14  15
ATOM     15  N2  SPM     1       1.464  65.016  69.733  1.00  0.00    -0.075 N 
ATOM     16  H11 SPM     1       1.415  65.653  70.516  1.00  0.00     0.277 HD
ATOM     17  H10 SPM     1       0.869  65.413  69.019  1.00  0.00     0.277 HD
BRANCH  15  18
ATOM     18  C3  SPM     1       2.888  64.957  69.223  1.00  0.00     0.233 C 
BRANCH  18  19
ATOM     19  C2  SPM     1       3.479  63.541  69.332  1.00  0.00     0.055 C 
BRANCH  19  20
ATOM     20  C1  SPM     1       3.819  63.007  67.932  1.00  0.00     0.231 C 
BRANCH  20  21
ATOM     21  N1  SPM     1       3.430  63.983  66.851  1.00  0.00    -0.079 N 
ATOM     22  H3  SPM     1       2.650  64.573  67.113  1.00  0.00     0.274 HD
ATOM     23  H2  SPM     1       4.193  64.589  66.573  1.00  0.00     0.274 HD
ATOM     24  H1  SPM     1       3.142  63.485  66.014  1.00  0.00     0.274 HD
ENDBRANCH  20  21
ENDBRANCH  19  20
ENDBRANCH  18  19
ENDBRANCH  15  18
ENDBRANCH  14  15
ENDBRANCH   1  14
TORSDOF 13
ENDMDL
MODEL 9
REMARK VINA RESULT:      -5.0      2.400      3.683
REMARK  13 active torsions:
REMARK  status: ('A' for Active; 'I' for Inactive)
REMARK    1  A    between atoms: N1_1  and  C1_5 
REMARK    2  A    between atoms: C1_5  and  C2_6 
REMARK    3  A    between atoms: C2_6  and  C3_7 
REMARK    4  A    between atoms: C3_7  and  N2_8 
REMARK    5  A    between atoms: N2_8  and  C4_11 
REMARK    6  A    between atoms: C4_11  and  C5_12 
REMARK    7  A    between atoms: C5_12  and  C6_13 
REMARK    8  A    between atoms: C6_13  and  C7_14 
REMARK    9  A    between atoms: C7_14  and  N3_15 
REMARK   10  A    between atoms: N3_15  and  C8_18 
REMARK   11  A    between atoms: C8_18  and  C9_19 
REMARK   12  A    between atoms: C9_19  and  C10_20 
REMARK   13  A    between atoms: C10_20  and  N4_21 
ROOT
ATOM      1  C5  SPM     1       2.634  67.617  63.729  1.00  0.00     0.029 C 
ENDROOT
BRANCH   1   2
ATOM      2  C6  SPM     1       4.006  68.043  64.306  1.00  0.00     0.029 C 
BRANCH   2   3
ATOM      3  C7  SPM     1       5.118  67.080  63.863  1.00  0.00     0.232 C 
BRANCH   3   4
ATOM      4  N3  SPM     1       4.586  65.980  62.964  1.00  0.00    -0.075 N 
ATOM      5  H21 SPM     1       3.600  66.133  62.802  1.00  0.00     0.277 HD
ATOM      6  H20 SPM     1       5.026  66.054  62.056  1.00  0.00     0.277 HD
BRANCH   4   7
ATOM      7  C8  SPM     1       4.792  64.581  63.507  1.00  0.00     0.233 C 
BRANCH   7   8
ATOM      8  C9  SPM     1       3.574  64.088  64.304  1.00  0.00     0.055 C 
BRANCH   8   9
ATOM      9  C10 SPM     1       3.933  63.977  65.793  1.00  0.00     0.231 C 
BRANCH   9  10
ATOM     10  N4  SPM     1       3.450  65.169  66.578  1.00  0.00    -0.079 N 
ATOM     11  H30 SPM     1       2.943  65.837  66.010  1.00  0.00     0.274 HD
ATOM     12  H29 SPM     1       2.810  64.874  67.310  1.00  0.00     0.274 HD
ATOM     13  H28 SPM     1       4.200  65.669  67.040  1.00  0.00     0.274 HD
ENDBRANCH   9  10
ENDBRANCH   8   9
ENDBRANCH   7   8
ENDBRANCH   4   7
ENDBRANCH   3   4
ENDBRANCH   2   3
ENDBRANCH   1   2
BRANCH   1  14
ATOM     14  C4  SPM     1       1.521  67.762  64.778  1.00  0.00     0.232 C 
BRANCH  14  15
ATOM     15  N2  SPM     1       0.175  68.043  64.136  1.00  0.00    -0.075 N 
ATOM     16  H11 SPM     1      -0.111  67.234  63.601  1.00  0.00     0.277 HD
ATOM     17  H10 SPM     1       0.279  68.793  63.466  1.00  0.00     0.277 HD
BRANCH  15  18
ATOM     18  C3  SPM     1      -0.917  68.401  65.122  1.00  0.00     0.233 C 
BRANCH  18  19
ATOM     19  C2  SPM     1      -0.563  67.965  66.554  1.00  0.00     0.055 C 
BRANCH  19  20
ATOM     20  C1  SPM     1      -1.816  67.419  67.258  1.00  0.00     0.231 C 
BRANCH  20  21
ATOM     21  N1  SPM     1      -3.082  67.987  66.670  1.00  0.00    -0.079 N 
ATOM     22  H3  SPM     1      -2.929  68.463  65.789  1.00  0.00     0.274 HD
ATOM     23  H2  SPM     1      -3.796  67.285  66.518  1.00  0.00     0.274 HD
ATOM     24  H1  SPM     1      -3.486  68.673  67.299  1.00  0.00     0.274 HD
ENDBRANCH  20  21
ENDBRANCH  19  20
ENDBRANCH  18  19
ENDBRANCH  15  18
ENDBRANCH  14  15
ENDBRANCH   1  14
TORSDOF 13
ENDMDL
