REMARK  5 active torsions:
REMARK  status: ('A' for Active; 'I' for Inactive)
REMARK    1  A    between atoms: N1_1  and  C3_5 
REMARK    2  A    between atoms: C3_5  and  C1_6 
REMARK    3  A    between atoms: C1_6  and  C2_7 
REMARK    4  A    between atoms: C2_7  and  C4_8 
REMARK    5  A    between atoms: C4_8  and  N2_9 
ROOT
ATOM      1  C1  PUT     1       6.040   1.225   0.000  1.00  0.00     0.029 C 
ENDROOT
BRANCH   1   2
ATOM      2  C3  PUT     1       4.846   2.180   0.000  1.00  0.00     0.229 C 
BRANCH   2   3
ATOM      3  N1  PUT     1       3.540   1.420   0.000  1.00  0.00    -0.079 N 
ATOM      4  H9  PUT     1       3.441   0.828  -0.814  1.00  0.00     0.274 HD
ATOM      5  H10 PUT     1       2.751   2.055  -0.001  1.00  0.00     0.274 HD
ATOM      6  H11 PUT     1       3.441   0.830   0.816  1.00  0.00     0.274 HD
ENDBRANCH   2   3
ENDBRANCH   1   2
BRANCH   1   7
ATOM      7  C2  PUT     1       7.366   2.006   0.000  1.00  0.00     0.029 C 
BRANCH   7   8
ATOM      8  C4  PUT     1       8.560   1.051   0.000  1.00  0.00     0.229 C 
BRANCH   8   9
ATOM      9  N2  PUT     1       9.866   1.811   0.000  1.00  0.00    -0.079 N 
ATOM     10  H12 PUT     1      10.655   1.176   0.001  1.00  0.00     0.274 HD
ATOM     11  H13 PUT     1       9.965   2.402   0.815  1.00  0.00     0.274 HD
ATOM     12  H14 PUT     1       9.965   2.402  -0.815  1.00  0.00     0.274 HD
ENDBRANCH   8   9
ENDBRANCH   7   8
ENDBRANCH   1   7
TORSDOF 5
